Program Version,EnergyPlus, Version 24.1.0-9d7789a3ac, YMD=2025.09.18 16:02,
   ************* Beginning Zone Sizing Calculations
   ** Warning ** ProcessScheduleInput: Schedule:Day:Interval="ECONOMIZER MAX OA FRACTION 70 PCT DEFAULT", Blank Schedule Type Limits Name input -- will not be validated.
   ** Warning ** ProcessScheduleInput: DecodeHHMMField, Invalid "until" field value is not a multiple of the minutes for each timestep: 00:59
   **   ~~~   ** Other errors may result. Occurred in Day Schedule=REFRIGERATION DEFROST SCHEDULE DEFAULT
   ** Warning ** ProcessScheduleInput: DecodeHHMMField, Invalid "until" field value is not a multiple of the minutes for each timestep: 00:59
   **   ~~~   ** Other errors may result. Occurred in Day Schedule=REFRIGERATION DEFROST SCHEDULE DEFAULT 1
   ** Warning ** ProcessScheduleInput: DecodeHHMMField, Invalid "until" field value is not a multiple of the minutes for each timestep: 00:59
   **   ~~~   ** Other errors may result. Occurred in Day Schedule=REFRIGERATION DEFROST SCHEDULE DEFAULT 10
   ** Warning ** ProcessScheduleInput: DecodeHHMMField, Invalid "until" field value is not a multiple of the minutes for each timestep: 00:59
   **   ~~~   ** Other errors may result. Occurred in Day Schedule=REFRIGERATION DEFROST SCHEDULE DEFAULT 11
   ** Warning ** ProcessScheduleInput: DecodeHHMMField, Invalid "until" field value is not a multiple of the minutes for each timestep: 01:59
   **   ~~~   ** Other errors may result. Occurred in Day Schedule=REFRIGERATION DEFROST SCHEDULE DEFAULT 12
   ** Warning ** ProcessScheduleInput: DecodeHHMMField, Invalid "until" field value is not a multiple of the minutes for each timestep: 01:59
   **   ~~~   ** Other errors may result. Occurred in Day Schedule=REFRIGERATION DEFROST SCHEDULE DEFAULT 13
   ** Warning ** ProcessScheduleInput: DecodeHHMMField, Invalid "until" field value is not a multiple of the minutes for each timestep: 02:59
   **   ~~~   ** Other errors may result. Occurred in Day Schedule=REFRIGERATION DEFROST SCHEDULE DEFAULT 14
   ** Warning ** ProcessScheduleInput: DecodeHHMMField, Invalid "until" field value is not a multiple of the minutes for each timestep: 02:59
   **   ~~~   ** Other errors may result. Occurred in Day Schedule=REFRIGERATION DEFROST SCHEDULE DEFAULT 15
   ** Warning ** ProcessScheduleInput: DecodeHHMMField, Invalid "until" field value is not a multiple of the minutes for each timestep: 03:59
   **   ~~~   ** Other errors may result. Occurred in Day Schedule=REFRIGERATION DEFROST SCHEDULE DEFAULT 16
   ** Warning ** ProcessScheduleInput: DecodeHHMMField, Invalid "until" field value is not a multiple of the minutes for each timestep: 03:59
   **   ~~~   ** Other errors may result. Occurred in Day Schedule=REFRIGERATION DEFROST SCHEDULE DEFAULT 17
   ** Warning ** ProcessScheduleInput: DecodeHHMMField, Invalid "until" field value is not a multiple of the minutes for each timestep: 04:59
   **   ~~~   ** Other errors may result. Occurred in Day Schedule=REFRIGERATION DEFROST SCHEDULE DEFAULT 18
   ** Warning ** ProcessScheduleInput: DecodeHHMMField, Invalid "until" field value is not a multiple of the minutes for each timestep: 04:59
   **   ~~~   ** Other errors may result. Occurred in Day Schedule=REFRIGERATION DEFROST SCHEDULE DEFAULT 19
   ** Warning ** ProcessScheduleInput: DecodeHHMMField, Invalid "until" field value is not a multiple of the minutes for each timestep: 01:59
   **   ~~~   ** Other errors may result. Occurred in Day Schedule=REFRIGERATION DEFROST SCHEDULE DEFAULT 2
   ** Warning ** ProcessScheduleInput: DecodeHHMMField, Invalid "until" field value is not a multiple of the minutes for each timestep: 00:59
   **   ~~~   ** Other errors may result. Occurred in Day Schedule=REFRIGERATION DEFROST SCHEDULE DEFAULT 20
   ** Warning ** ProcessScheduleInput: DecodeHHMMField, Invalid "until" field value is not a multiple of the minutes for each timestep: 10:59
   **   ~~~   ** Other errors may result. Occurred in Day Schedule=REFRIGERATION DEFROST SCHEDULE DEFAULT 20
   ** Warning ** ProcessScheduleInput: DecodeHHMMField, Invalid "until" field value is not a multiple of the minutes for each timestep: 00:59
   **   ~~~   ** Other errors may result. Occurred in Day Schedule=REFRIGERATION DEFROST SCHEDULE DEFAULT 21
   ** Warning ** ProcessScheduleInput: DecodeHHMMField, Invalid "until" field value is not a multiple of the minutes for each timestep: 10:59
   **   ~~~   ** Other errors may result. Occurred in Day Schedule=REFRIGERATION DEFROST SCHEDULE DEFAULT 21
   ** Warning ** ProcessScheduleInput: DecodeHHMMField, Invalid "until" field value is not a multiple of the minutes for each timestep: 00:59
   **   ~~~   ** Other errors may result. Occurred in Day Schedule=REFRIGERATION DEFROST SCHEDULE DEFAULT 22
   ** Warning ** ProcessScheduleInput: DecodeHHMMField, Invalid "until" field value is not a multiple of the minutes for each timestep: 10:59
   **   ~~~   ** Other errors may result. Occurred in Day Schedule=REFRIGERATION DEFROST SCHEDULE DEFAULT 22
   ** Warning ** ProcessScheduleInput: DecodeHHMMField, Invalid "until" field value is not a multiple of the minutes for each timestep: 00:59
   **   ~~~   ** Other errors may result. Occurred in Day Schedule=REFRIGERATION DEFROST SCHEDULE DEFAULT 23
   ** Warning ** ProcessScheduleInput: DecodeHHMMField, Invalid "until" field value is not a multiple of the minutes for each timestep: 10:59
   **   ~~~   ** Other errors may result. Occurred in Day Schedule=REFRIGERATION DEFROST SCHEDULE DEFAULT 23
   ** Warning ** ProcessScheduleInput: DecodeHHMMField, Invalid "until" field value is not a multiple of the minutes for each timestep: 00:59
   **   ~~~   ** Other errors may result. Occurred in Day Schedule=REFRIGERATION DEFROST SCHEDULE DEFAULT 24
   ** Warning ** ProcessScheduleInput: DecodeHHMMField, Invalid "until" field value is not a multiple of the minutes for each timestep: 00:59
   **   ~~~   ** Other errors may result. Occurred in Day Schedule=REFRIGERATION DEFROST SCHEDULE DEFAULT 25
   ** Warning ** ProcessScheduleInput: DecodeHHMMField, Invalid "until" field value is not a multiple of the minutes for each timestep: 01:59
   **   ~~~   ** Other errors may result. Occurred in Day Schedule=REFRIGERATION DEFROST SCHEDULE DEFAULT 26
   ** Warning ** ProcessScheduleInput: DecodeHHMMField, Invalid "until" field value is not a multiple of the minutes for each timestep: 01:59
   **   ~~~   ** Other errors may result. Occurred in Day Schedule=REFRIGERATION DEFROST SCHEDULE DEFAULT 27
   ** Warning ** ProcessScheduleInput: DecodeHHMMField, Invalid "until" field value is not a multiple of the minutes for each timestep: 02:59
   **   ~~~   ** Other errors may result. Occurred in Day Schedule=REFRIGERATION DEFROST SCHEDULE DEFAULT 28
   ** Warning ** ProcessScheduleInput: DecodeHHMMField, Invalid "until" field value is not a multiple of the minutes for each timestep: 02:59
   **   ~~~   ** Other errors may result. Occurred in Day Schedule=REFRIGERATION DEFROST SCHEDULE DEFAULT 29
   ** Warning ** ProcessScheduleInput: DecodeHHMMField, Invalid "until" field value is not a multiple of the minutes for each timestep: 01:59
   **   ~~~   ** Other errors may result. Occurred in Day Schedule=REFRIGERATION DEFROST SCHEDULE DEFAULT 3
   ** Warning ** ProcessScheduleInput: DecodeHHMMField, Invalid "until" field value is not a multiple of the minutes for each timestep: 03:59
   **   ~~~   ** Other errors may result. Occurred in Day Schedule=REFRIGERATION DEFROST SCHEDULE DEFAULT 30
   ** Warning ** ProcessScheduleInput: DecodeHHMMField, Invalid "until" field value is not a multiple of the minutes for each timestep: 03:59
   **   ~~~   ** Other errors may result. Occurred in Day Schedule=REFRIGERATION DEFROST SCHEDULE DEFAULT 31
   ** Warning ** ProcessScheduleInput: DecodeHHMMField, Invalid "until" field value is not a multiple of the minutes for each timestep: 04:59
   **   ~~~   ** Other errors may result. Occurred in Day Schedule=REFRIGERATION DEFROST SCHEDULE DEFAULT 32
   ** Warning ** ProcessScheduleInput: DecodeHHMMField, Invalid "until" field value is not a multiple of the minutes for each timestep: 04:59
   **   ~~~   ** Other errors may result. Occurred in Day Schedule=REFRIGERATION DEFROST SCHEDULE DEFAULT 33
   ** Warning ** ProcessScheduleInput: DecodeHHMMField, Invalid "until" field value is not a multiple of the minutes for each timestep: 05:59
   **   ~~~   ** Other errors may result. Occurred in Day Schedule=REFRIGERATION DEFROST SCHEDULE DEFAULT 34
   ** Warning ** ProcessScheduleInput: DecodeHHMMField, Invalid "until" field value is not a multiple of the minutes for each timestep: 05:59
   **   ~~~   ** Other errors may result. Occurred in Day Schedule=REFRIGERATION DEFROST SCHEDULE DEFAULT 35
   ** Warning ** ProcessScheduleInput: DecodeHHMMField, Invalid "until" field value is not a multiple of the minutes for each timestep: 06:59
   **   ~~~   ** Other errors may result. Occurred in Day Schedule=REFRIGERATION DEFROST SCHEDULE DEFAULT 36
   ** Warning ** ProcessScheduleInput: DecodeHHMMField, Invalid "until" field value is not a multiple of the minutes for each timestep: 06:59
   **   ~~~   ** Other errors may result. Occurred in Day Schedule=REFRIGERATION DEFROST SCHEDULE DEFAULT 37
   ** Warning ** ProcessScheduleInput: DecodeHHMMField, Invalid "until" field value is not a multiple of the minutes for each timestep: 00:59
   **   ~~~   ** Other errors may result. Occurred in Day Schedule=REFRIGERATION DEFROST SCHEDULE DEFAULT 38
   ** Warning ** ProcessScheduleInput: DecodeHHMMField, Invalid "until" field value is not a multiple of the minutes for each timestep: 10:59
   **   ~~~   ** Other errors may result. Occurred in Day Schedule=REFRIGERATION DEFROST SCHEDULE DEFAULT 38
   ** Warning ** ProcessScheduleInput: DecodeHHMMField, Invalid "until" field value is not a multiple of the minutes for each timestep: 00:59
   **   ~~~   ** Other errors may result. Occurred in Day Schedule=REFRIGERATION DEFROST SCHEDULE DEFAULT 39
   ** Warning ** ProcessScheduleInput: DecodeHHMMField, Invalid "until" field value is not a multiple of the minutes for each timestep: 10:59
   **   ~~~   ** Other errors may result. Occurred in Day Schedule=REFRIGERATION DEFROST SCHEDULE DEFAULT 39
   ** Warning ** ProcessScheduleInput: DecodeHHMMField, Invalid "until" field value is not a multiple of the minutes for each timestep: 00:59
   **   ~~~   ** Other errors may result. Occurred in Day Schedule=REFRIGERATION DEFROST SCHEDULE DEFAULT 4
   ** Warning ** ProcessScheduleInput: DecodeHHMMField, Invalid "until" field value is not a multiple of the minutes for each timestep: 10:59
   **   ~~~   ** Other errors may result. Occurred in Day Schedule=REFRIGERATION DEFROST SCHEDULE DEFAULT 4
   ** Warning ** ProcessScheduleInput: DecodeHHMMField, Invalid "until" field value is not a multiple of the minutes for each timestep: 00:59
   **   ~~~   ** Other errors may result. Occurred in Day Schedule=REFRIGERATION DEFROST SCHEDULE DEFAULT 40
   ** Warning ** ProcessScheduleInput: DecodeHHMMField, Invalid "until" field value is not a multiple of the minutes for each timestep: 10:59
   **   ~~~   ** Other errors may result. Occurred in Day Schedule=REFRIGERATION DEFROST SCHEDULE DEFAULT 40
   ** Warning ** ProcessScheduleInput: DecodeHHMMField, Invalid "until" field value is not a multiple of the minutes for each timestep: 00:59
   **   ~~~   ** Other errors may result. Occurred in Day Schedule=REFRIGERATION DEFROST SCHEDULE DEFAULT 41
   ** Warning ** ProcessScheduleInput: DecodeHHMMField, Invalid "until" field value is not a multiple of the minutes for each timestep: 10:59
   **   ~~~   ** Other errors may result. Occurred in Day Schedule=REFRIGERATION DEFROST SCHEDULE DEFAULT 41
   ** Warning ** ProcessScheduleInput: DecodeHHMMField, Invalid "until" field value is not a multiple of the minutes for each timestep: 00:59
   **   ~~~   ** Other errors may result. Occurred in Day Schedule=REFRIGERATION DEFROST SCHEDULE DEFAULT 42
   ** Warning ** ProcessScheduleInput: DecodeHHMMField, Invalid "until" field value is not a multiple of the minutes for each timestep: 10:59
   **   ~~~   ** Other errors may result. Occurred in Day Schedule=REFRIGERATION DEFROST SCHEDULE DEFAULT 42
   ** Warning ** ProcessScheduleInput: DecodeHHMMField, Invalid "until" field value is not a multiple of the minutes for each timestep: 00:59
   **   ~~~   ** Other errors may result. Occurred in Day Schedule=REFRIGERATION DEFROST SCHEDULE DEFAULT 43
   ** Warning ** ProcessScheduleInput: DecodeHHMMField, Invalid "until" field value is not a multiple of the minutes for each timestep: 10:59
   **   ~~~   ** Other errors may result. Occurred in Day Schedule=REFRIGERATION DEFROST SCHEDULE DEFAULT 43
   ** Warning ** ProcessScheduleInput: DecodeHHMMField, Invalid "until" field value is not a multiple of the minutes for each timestep: 00:59
   **   ~~~   ** Other errors may result. Occurred in Day Schedule=REFRIGERATION DEFROST SCHEDULE DEFAULT 44
   ** Warning ** ProcessScheduleInput: DecodeHHMMField, Invalid "until" field value is not a multiple of the minutes for each timestep: 10:59
   **   ~~~   ** Other errors may result. Occurred in Day Schedule=REFRIGERATION DEFROST SCHEDULE DEFAULT 44
   ** Warning ** ProcessScheduleInput: DecodeHHMMField, Invalid "until" field value is not a multiple of the minutes for each timestep: 00:59
   **   ~~~   ** Other errors may result. Occurred in Day Schedule=REFRIGERATION DEFROST SCHEDULE DEFAULT 45
   ** Warning ** ProcessScheduleInput: DecodeHHMMField, Invalid "until" field value is not a multiple of the minutes for each timestep: 10:59
   **   ~~~   ** Other errors may result. Occurred in Day Schedule=REFRIGERATION DEFROST SCHEDULE DEFAULT 45
   ** Warning ** ProcessScheduleInput: DecodeHHMMField, Invalid "until" field value is not a multiple of the minutes for each timestep: 00:59
   **   ~~~   ** Other errors may result. Occurred in Day Schedule=REFRIGERATION DEFROST SCHEDULE DEFAULT 46
   ** Warning ** ProcessScheduleInput: DecodeHHMMField, Invalid "until" field value is not a multiple of the minutes for each timestep: 10:59
   **   ~~~   ** Other errors may result. Occurred in Day Schedule=REFRIGERATION DEFROST SCHEDULE DEFAULT 46
   ** Warning ** ProcessScheduleInput: DecodeHHMMField, Invalid "until" field value is not a multiple of the minutes for each timestep: 00:59
   **   ~~~   ** Other errors may result. Occurred in Day Schedule=REFRIGERATION DEFROST SCHEDULE DEFAULT 47
   ** Warning ** ProcessScheduleInput: DecodeHHMMField, Invalid "until" field value is not a multiple of the minutes for each timestep: 10:59
   **   ~~~   ** Other errors may result. Occurred in Day Schedule=REFRIGERATION DEFROST SCHEDULE DEFAULT 47
   ** Warning ** ProcessScheduleInput: DecodeHHMMField, Invalid "until" field value is not a multiple of the minutes for each timestep: 00:59
   **   ~~~   ** Other errors may result. Occurred in Day Schedule=REFRIGERATION DEFROST SCHEDULE DEFAULT 48
   ** Warning ** ProcessScheduleInput: DecodeHHMMField, Invalid "until" field value is not a multiple of the minutes for each timestep: 10:59
   **   ~~~   ** Other errors may result. Occurred in Day Schedule=REFRIGERATION DEFROST SCHEDULE DEFAULT 48
   ** Warning ** ProcessScheduleInput: DecodeHHMMField, Invalid "until" field value is not a multiple of the minutes for each timestep: 00:59
   **   ~~~   ** Other errors may result. Occurred in Day Schedule=REFRIGERATION DEFROST SCHEDULE DEFAULT 49
   ** Warning ** ProcessScheduleInput: DecodeHHMMField, Invalid "until" field value is not a multiple of the minutes for each timestep: 10:59
   **   ~~~   ** Other errors may result. Occurred in Day Schedule=REFRIGERATION DEFROST SCHEDULE DEFAULT 49
   ** Warning ** ProcessScheduleInput: DecodeHHMMField, Invalid "until" field value is not a multiple of the minutes for each timestep: 00:59
   **   ~~~   ** Other errors may result. Occurred in Day Schedule=REFRIGERATION DEFROST SCHEDULE DEFAULT 5
   ** Warning ** ProcessScheduleInput: DecodeHHMMField, Invalid "until" field value is not a multiple of the minutes for each timestep: 10:59
   **   ~~~   ** Other errors may result. Occurred in Day Schedule=REFRIGERATION DEFROST SCHEDULE DEFAULT 5
   ** Warning ** ProcessScheduleInput: DecodeHHMMField, Invalid "until" field value is not a multiple of the minutes for each timestep: 00:59
   **   ~~~   ** Other errors may result. Occurred in Day Schedule=REFRIGERATION DEFROST SCHEDULE DEFAULT 6
   ** Warning ** ProcessScheduleInput: DecodeHHMMField, Invalid "until" field value is not a multiple of the minutes for each timestep: 00:59
   **   ~~~   ** Other errors may result. Occurred in Day Schedule=REFRIGERATION DEFROST SCHEDULE DEFAULT 7
   ** Warning ** ProcessScheduleInput: DecodeHHMMField, Invalid "until" field value is not a multiple of the minutes for each timestep: 00:59
   **   ~~~   ** Other errors may result. Occurred in Day Schedule=REFRIGERATION DEFROST SCHEDULE DEFAULT 8
   ** Warning ** ProcessScheduleInput: DecodeHHMMField, Invalid "until" field value is not a multiple of the minutes for each timestep: 10:59
   **   ~~~   ** Other errors may result. Occurred in Day Schedule=REFRIGERATION DEFROST SCHEDULE DEFAULT 8
   ** Warning ** ProcessScheduleInput: DecodeHHMMField, Invalid "until" field value is not a multiple of the minutes for each timestep: 00:59
   **   ~~~   ** Other errors may result. Occurred in Day Schedule=REFRIGERATION DEFROST SCHEDULE DEFAULT 9
   ** Warning ** ProcessScheduleInput: DecodeHHMMField, Invalid "until" field value is not a multiple of the minutes for each timestep: 10:59
   **   ~~~   ** Other errors may result. Occurred in Day Schedule=REFRIGERATION DEFROST SCHEDULE DEFAULT 9
   ** Warning ** CheckUsedConstructions: There are 11 nominally unused constructions in input.
   **   ~~~   ** For explicit details on each unused construction, use Output:Diagnostics,DisplayExtraWarnings;
   ** Warning ** GetInternalHeatGains: People="SUPERMARKET DRYSTORAGE PEOPLE" has comfort related schedules but no thermal comfort model selected.
   **   ~~~   ** If schedules are specified for air velocity, clothing insulation, and/or work efficiency but no thermal comfort
   **   ~~~   ** thermal comfort model is selected, the schedules will be listed as unused schedules in the .err file.
   **   ~~~   ** To avoid these errors, select a valid thermal comfort model or eliminate these schedules in the PEOPLE input.
   ** Warning ** GetInternalHeatGains: People="SUPERMARKET BAKERY PEOPLE" has comfort related schedules but no thermal comfort model selected.
   **   ~~~   ** If schedules are specified for air velocity, clothing insulation, and/or work efficiency but no thermal comfort
   **   ~~~   ** thermal comfort model is selected, the schedules will be listed as unused schedules in the .err file.
   **   ~~~   ** To avoid these errors, select a valid thermal comfort model or eliminate these schedules in the PEOPLE input.
   ** Warning ** GetInternalHeatGains: People="SUPERMARKET CORRIDOR PEOPLE" has comfort related schedules but no thermal comfort model selected.
   **   ~~~   ** If schedules are specified for air velocity, clothing insulation, and/or work efficiency but no thermal comfort
   **   ~~~   ** thermal comfort model is selected, the schedules will be listed as unused schedules in the .err file.
   **   ~~~   ** To avoid these errors, select a valid thermal comfort model or eliminate these schedules in the PEOPLE input.
   ** Warning ** GetInternalHeatGains: People="SUPERMARKET DELI PEOPLE" has comfort related schedules but no thermal comfort model selected.
   **   ~~~   ** If schedules are specified for air velocity, clothing insulation, and/or work efficiency but no thermal comfort
   **   ~~~   ** thermal comfort model is selected, the schedules will be listed as unused schedules in the .err file.
   **   ~~~   ** To avoid these errors, select a valid thermal comfort model or eliminate these schedules in the PEOPLE input.
   ** Warning ** GetInternalHeatGains: People="SUPERMARKET DINING PEOPLE" has comfort related schedules but no thermal comfort model selected.
   **   ~~~   ** If schedules are specified for air velocity, clothing insulation, and/or work efficiency but no thermal comfort
   **   ~~~   ** thermal comfort model is selected, the schedules will be listed as unused schedules in the .err file.
   **   ~~~   ** To avoid these errors, select a valid thermal comfort model or eliminate these schedules in the PEOPLE input.
   ** Warning ** GetInternalHeatGains: People="SUPERMARKET SALES PEOPLE" has comfort related schedules but no thermal comfort model selected.
   **   ~~~   ** If schedules are specified for air velocity, clothing insulation, and/or work efficiency but no thermal comfort
   **   ~~~   ** thermal comfort model is selected, the schedules will be listed as unused schedules in the .err file.
   **   ~~~   ** To avoid these errors, select a valid thermal comfort model or eliminate these schedules in the PEOPLE input.
   ** Warning ** GetInternalHeatGains: People="SUPERMARKET SALES PEOPLE" has comfort related schedules but no thermal comfort model selected.
   **   ~~~   ** If schedules are specified for air velocity, clothing insulation, and/or work efficiency but no thermal comfort
   **   ~~~   ** thermal comfort model is selected, the schedules will be listed as unused schedules in the .err file.
   **   ~~~   ** To avoid these errors, select a valid thermal comfort model or eliminate these schedules in the PEOPLE input.
   ** Warning ** GetInternalHeatGains: People="SUPERMARKET SALES PEOPLE" has comfort related schedules but no thermal comfort model selected.
   **   ~~~   ** If schedules are specified for air velocity, clothing insulation, and/or work efficiency but no thermal comfort
   **   ~~~   ** thermal comfort model is selected, the schedules will be listed as unused schedules in the .err file.
   **   ~~~   ** To avoid these errors, select a valid thermal comfort model or eliminate these schedules in the PEOPLE input.
   ** Warning ** GetInternalHeatGains: People="SUPERMARKET OFFICE PEOPLE" has comfort related schedules but no thermal comfort model selected.
   **   ~~~   ** If schedules are specified for air velocity, clothing insulation, and/or work efficiency but no thermal comfort
   **   ~~~   ** thermal comfort model is selected, the schedules will be listed as unused schedules in the .err file.
   **   ~~~   ** To avoid these errors, select a valid thermal comfort model or eliminate these schedules in the PEOPLE input.
   ** Warning ** GetInternalHeatGains: People="SUPERMARKET MEETING PEOPLE" has comfort related schedules but no thermal comfort model selected.
   **   ~~~   ** If schedules are specified for air velocity, clothing insulation, and/or work efficiency but no thermal comfort
   **   ~~~   ** thermal comfort model is selected, the schedules will be listed as unused schedules in the .err file.
   **   ~~~   ** To avoid these errors, select a valid thermal comfort model or eliminate these schedules in the PEOPLE input.
   ** Warning ** GetInternalHeatGains: People="SUPERMARKET PRODUCE PEOPLE" has comfort related schedules but no thermal comfort model selected.
   **   ~~~   ** If schedules are specified for air velocity, clothing insulation, and/or work efficiency but no thermal comfort
   **   ~~~   ** thermal comfort model is selected, the schedules will be listed as unused schedules in the .err file.
   **   ~~~   ** To avoid these errors, select a valid thermal comfort model or eliminate these schedules in the PEOPLE input.
   ** Warning ** GetInternalHeatGains: People="SUPERMARKET RESTROOM PEOPLE" has comfort related schedules but no thermal comfort model selected.
   **   ~~~   ** If schedules are specified for air velocity, clothing insulation, and/or work efficiency but no thermal comfort
   **   ~~~   ** thermal comfort model is selected, the schedules will be listed as unused schedules in the .err file.
   **   ~~~   ** To avoid these errors, select a valid thermal comfort model or eliminate these schedules in the PEOPLE input.
   ** Warning ** GetInternalHeatGains: People="SUPERMARKET VESTIBULE PEOPLE" has comfort related schedules but no thermal comfort model selected.
   **   ~~~   ** If schedules are specified for air velocity, clothing insulation, and/or work efficiency but no thermal comfort
   **   ~~~   ** thermal comfort model is selected, the schedules will be listed as unused schedules in the .err file.
   **   ~~~   ** To avoid these errors, select a valid thermal comfort model or eliminate these schedules in the PEOPLE input.
   ** Warning ** Calculated design cooling load for zone=ACTIVE STORAGE ZN is zero.
   **   ~~~   ** Check Sizing:Zone and ZoneControl:Thermostat inputs.
   ** Warning ** Calculated design cooling load for zone=VESTIBULE ZN is zero.
   **   ~~~   ** Check Sizing:Zone and ZoneControl:Thermostat inputs.
   ************* Beginning System Sizing Calculations
   ** Warning ** GetDXCoils: Coil:Cooling:DX:TwoSpeed="ACTIVE STORAGE ZN PSZ_14 2SPD DX AC CLG COIL 152KBTU/HR 9.5EER", invalid
   **   ~~~   ** ...Part Load Fraction Correlation Curve Name = COILCLGDXEIRRATIO_FQFRAC has out of range value.
   **   ~~~   ** ...Curve maximum must be <= 1.0, curve max at PLR = 0.99 is 1.018
   **   ~~~   ** ...Setting curve maximum to 1.0 and simulation continues.
   ************* Beginning Plant Sizing Calculations
   ** Warning ** GetOAControllerInputs: Controller:MechanicalVentilation="CONTROLLER MECHANICAL VENTILATION 14"
   **   ~~~   ** Cannot locate a matching DesignSpecification:ZoneAirDistribution object for Zone="ACTIVE STORAGE ZN".
   **   ~~~   ** Using default zone air distribution effectiveness of 1.0 for heating and cooling.
   ** Warning ** GetOAControllerInputs: Controller:MechanicalVentilation="CONTROLLER MECHANICAL VENTILATION 6"
   **   ~~~   ** Cannot locate a matching DesignSpecification:ZoneAirDistribution object for Zone="BAKERY ZN".
   **   ~~~   ** Using default zone air distribution effectiveness of 1.0 for heating and cooling.
   ** Warning ** GetOAControllerInputs: Controller:MechanicalVentilation="CONTROLLER MECHANICAL VENTILATION 12"
   **   ~~~   ** Cannot locate a matching DesignSpecification:ZoneAirDistribution object for Zone="CORRIDOR ZN".
   **   ~~~   ** Using default zone air distribution effectiveness of 1.0 for heating and cooling.
   ** Warning ** GetOAControllerInputs: Controller:MechanicalVentilation="CONTROLLER MECHANICAL VENTILATION 5"
   **   ~~~   ** Cannot locate a matching DesignSpecification:ZoneAirDistribution object for Zone="DELI ZN".
   **   ~~~   ** Using default zone air distribution effectiveness of 1.0 for heating and cooling.
   ** Warning ** GetOAControllerInputs: Controller:MechanicalVentilation="CONTROLLER MECHANICAL VENTILATION 9"
   **   ~~~   ** Cannot locate a matching DesignSpecification:ZoneAirDistribution object for Zone="DINING ROOM ZN".
   **   ~~~   ** Using default zone air distribution effectiveness of 1.0 for heating and cooling.
   ** Warning ** GetOAControllerInputs: Controller:MechanicalVentilation="CONTROLLER MECHANICAL VENTILATION 3"
   **   ~~~   ** Cannot locate a matching DesignSpecification:ZoneAirDistribution object for Zone="EAST PERIMETER SALES ZN".
   **   ~~~   ** Using default zone air distribution effectiveness of 1.0 for heating and cooling.
   ** Warning ** GetOAControllerInputs: Controller:MechanicalVentilation="CONTROLLER MECHANICAL VENTILATION 7"
   **   ~~~   ** Cannot locate a matching DesignSpecification:ZoneAirDistribution object for Zone="ENCLOSED OFFICE ZN".
   **   ~~~   ** Using default zone air distribution effectiveness of 1.0 for heating and cooling.
   ** Warning ** GetOAControllerInputs: Controller:MechanicalVentilation="CONTROLLER MECHANICAL VENTILATION 1"
   **   ~~~   ** Cannot locate a matching DesignSpecification:ZoneAirDistribution object for Zone="MAIN SALES ZN".
   **   ~~~   ** Using default zone air distribution effectiveness of 1.0 for heating and cooling.
   ** Warning ** GetOAControllerInputs: Controller:MechanicalVentilation="CONTROLLER MECHANICAL VENTILATION 11"
   **   ~~~   ** Cannot locate a matching DesignSpecification:ZoneAirDistribution object for Zone="MECHANICAL ROOM ZN".
   **   ~~~   ** Using default zone air distribution effectiveness of 1.0 for heating and cooling.
   ** Warning ** GetOAControllerInputs: Controller:MechanicalVentilation="CONTROLLER MECHANICAL VENTILATION 8"
   **   ~~~   ** Cannot locate a matching DesignSpecification:ZoneAirDistribution object for Zone="MEETING ROOM ZN".
   **   ~~~   ** Using default zone air distribution effectiveness of 1.0 for heating and cooling.
   ** Warning ** GetOAControllerInputs: Controller:MechanicalVentilation="CONTROLLER MECHANICAL VENTILATION 4"
   **   ~~~   ** Cannot locate a matching DesignSpecification:ZoneAirDistribution object for Zone="PRODUCE ZN".
   **   ~~~   ** Using default zone air distribution effectiveness of 1.0 for heating and cooling.
   ** Warning ** GetOAControllerInputs: Controller:MechanicalVentilation="CONTROLLER MECHANICAL VENTILATION 10"
   **   ~~~   ** Cannot locate a matching DesignSpecification:ZoneAirDistribution object for Zone="RESTROOM ZN".
   **   ~~~   ** Using default zone air distribution effectiveness of 1.0 for heating and cooling.
   ** Warning ** GetOAControllerInputs: Controller:MechanicalVentilation="CONTROLLER MECHANICAL VENTILATION 13"
   **   ~~~   ** Cannot locate a matching DesignSpecification:ZoneAirDistribution object for Zone="VESTIBULE ZN".
   **   ~~~   ** Using default zone air distribution effectiveness of 1.0 for heating and cooling.
   ** Warning ** GetOAControllerInputs: Controller:MechanicalVentilation="CONTROLLER MECHANICAL VENTILATION 2"
   **   ~~~   ** Cannot locate a matching DesignSpecification:ZoneAirDistribution object for Zone="WEST PERIMETER SALES ZN".
   **   ~~~   ** Using default zone air distribution effectiveness of 1.0 for heating and cooling.
   ** Warning ** Check input. Pump nominal power or motor efficiency is set to 0, for pump=MAIN SERVICE WATER LOOP WATER MAINS PRESSURE DRIVEN
   ** Warning ** Output:Meter: invalid Key Name="DISTRICTHEATINGWATER:FACILITY" - not found.
   ** Warning ** Output:Meter: invalid Key Name="DISTRICTCOOLING:FACILITY" - not found.
   ** Warning ** Output:Meter:MeterFileOnly requested for "Electricity:Facility" (TimeStep), already on "Output:Meter". Will report to both eplusout.eso and eplusout.mtr
   ************* Testing Individual Branch Integrity
   ************* All Branches passed integrity testing
   ************* Testing Individual Supply Air Path Integrity
   ************* All Supply Air Paths passed integrity testing
   ************* Testing Individual Return Air Path Integrity
   ************* All Return Air Paths passed integrity testing
   ************* No node connection errors were found.
   ************* Beginning Simulation
   ** Warning ** CalcEquipmentFlowRates: "MAIN SERVICE WATER USE 0.17GPM AT 140F" - Target water temperature is greater than the hot water temperature by (0.59 C)
   **   ~~~   **  Environment=RUN PERIOD 1, at Simulation time=01/01 00:00 - 00:05
   **   ~~~   ** ...target water temperature     = 60.00 C
   **   ~~~   ** ...hot water temperature        = 59.41 C
   **   ~~~   ** ...Target water temperature should be less than or equal to the hot water temperature. Verify temperature setpoints and schedules.
   ** Warning ** Processing Monthly Tabular Reports: Variable names not valid for this simulation
   **   ~~~   ** ...use Output:Diagnostics,DisplayExtraWarnings; to show more details on individual variables.
   ** Warning ** Temperature out of range [-100. to 200.] (PsyPsatFnTemp)
   **   ~~~   **  Routine=PsyTwbFnTdbWPb, Environment=RUN PERIOD 1, at Simulation time=01/03 10:55 - 11:00
   **   ~~~   **  Input Temperature=-327.15
   ** Warning ** Refrigeration:WalkIn: BAKERY FREEZER
   **   ~~~   **  This walk-in cooler has insufficient capacity to meet the loads
   **   ~~~   ** ... Occurrence info = RUN PERIOD 1, 01/08 12:40 - 12:45
   **   ~~~   **  Refer to documentation for further explanation of Total Cooling Capacity.
   ** Warning ** In zone DELI ZN there is unbalanced air flow. Load due to induced outdoor air is neglected.
   **   ~~~   **  Environment=RUN PERIOD 1, at Simulation time=03/14 13:00 - 13:05
   **   ~~~   **   Flows [m3/s]: Inlets: 0.000000  Unbalanced exhausts: 0.337400  Returns: 0.000000
   **   ~~~   **   Infiltration: 1.333322E-002  Zone Ventilation: 0.000000  Mixing (incoming): 0.000000
   **   ~~~   **   Imbalance (excess outflow): 0.324067  Total system OA flow (for all airloops serving this zone): 1.227831
   **   ~~~   **   This error will only be reported once per zone.
   ** Warning ** In zone BAKERY ZN there is unbalanced air flow. Load due to induced outdoor air is neglected.
   **   ~~~   **  Environment=RUN PERIOD 1, at Simulation time=03/15 11:15 - 11:20
   **   ~~~   **   Flows [m3/s]: Inlets: 0.000000  Unbalanced exhausts: 0.354000  Returns: 0.000000
   **   ~~~   **   Infiltration: 1.782753E-002  Zone Ventilation: 0.000000  Mixing (incoming): 0.000000
   **   ~~~   **   Imbalance (excess outflow): 0.336172  Total system OA flow (for all airloops serving this zone): 0.876643
   **   ~~~   **   This error will only be reported once per zone.
   ** Warning ** WetBulb not converged after 101 iterations(PsyTwbFnTdbWPb)
   **   ~~~   **  Routine=Unknown, Environment=RUN PERIOD 1, at Simulation time=03/26 14:45 - 14:50
   **   ~~~   **  Input Temperature = 5.53
   **   ~~~   **  Input Humidity Ratio= 1.582117E-003
   **   ~~~   **  Input Pressure = 100200.00
   **   ~~~   **  Resultant Temperature= 2.32E-002
   ** Warning ** The resource referenced by LifeCycleCost:UsePriceEscalation= "U.S. AVG  COMMERCIAL-ELECTRICITY" has no energy cost. 
   **   ~~~   ** ... It is likely that the wrong resource is used. The resource should match the meter used in Utility:Tariff.
   ** Warning ** The resource referenced by LifeCycleCost:UsePriceEscalation= "U.S. AVG  COMMERCIAL-DISTILLATE OIL" has no energy cost. 
   **   ~~~   ** ... It is likely that the wrong resource is used. The resource should match the meter used in Utility:Tariff.
   ** Warning ** The resource referenced by LifeCycleCost:UsePriceEscalation= "U.S. AVG  COMMERCIAL-RESIDUAL OIL" has no energy cost. 
   **   ~~~   ** ... It is likely that the wrong resource is used. The resource should match the meter used in Utility:Tariff.
   ** Warning ** The resource referenced by LifeCycleCost:UsePriceEscalation= "U.S. AVG  COMMERCIAL-NATURAL GAS" has no energy cost. 
   **   ~~~   ** ... It is likely that the wrong resource is used. The resource should match the meter used in Utility:Tariff.
   ** Warning ** The resource referenced by LifeCycleCost:UsePriceEscalation= "U.S. AVG  COMMERCIAL-COAL" has no energy cost. 
   **   ~~~   ** ... It is likely that the wrong resource is used. The resource should match the meter used in Utility:Tariff.
   ************* Simulation Error Summary *************
   ** Warning ** The following Report Variables were requested but not generated -- check.rdd file
   **   ~~~   ** Either the IDF did not contain these elements, the variable name is misspelled,
   **   ~~~   ** or the requested variable is an advanced output which requires Output : Diagnostics, DisplayAdvancedReportVariables;
   ************* Key=*, VarName=WATER HEATER ELECTRICITY RATE, Frequency=Hourly
   ************* Key=*, VarName=CHILLER ELECTRICITY RATE, Frequency=Hourly
   ************* Key=*, VarName=CHILLER ELECTRICITY ENERGY, Frequency=Hourly
   ************* Key=*, VarName=COOLING TOWER HEAT TRANSFER RATE, Frequency=Hourly
   ************* Key=*, VarName=COOLING TOWER FAN ELECTRICITY RATE, Frequency=Hourly
   ************* Key=*, VarName=COOLING TOWER FAN ELECTRICITY ENERGY, Frequency=Hourly
   ************* Key=*, VarName=BOILER NATURALGAS RATE, Frequency=Hourly
   ************* Key=*, VarName=HEATING COIL AIR HEATING RATE, Frequency=Hourly
   ************* There are 59 unused schedules in input.
   ************* There are 59 unused week schedules in input.
   ************* There are 63 unused day schedules in input.
   ************* Use Output:Diagnostics,DisplayUnusedSchedules; to see them.
   *************
   ************* ===== Recurring Error Summary =====
   ************* The following recurring error messages occurred.
   *************
   *************  ** Warning ** "MAIN SERVICE WATER USE 0.17GPM AT 140F" - Target water temperature should be less than or equal to the hot water temperature error continues...
   *************  **   ~~~   **   This error occurred 1413943 total times;
   *************  **   ~~~   **   during Warmup 0 times;
   *************  **   ~~~   **   during Sizing 0 times.
   *************  **   ~~~   **   Max=1.918462  Min=0.194685
   *************
   *************  ** Warning ** Temperature out of range [-100. to 200.] (PsyPsatFnTemp)
   *************  **   ~~~   **   This error occurred 31 total times;
   *************  **   ~~~   **   during Warmup 0 times;
   *************  **   ~~~   **   during Sizing 0 times.
   *************  **   ~~~   **   Max=-103.166561 C  Min=-47311.820312 C
   *************
   *************  ** Warning ** WetBulb not converged after max iterations(PsyTwbFnTdbWPb)
   *************  **   ~~~   **   This error occurred 2 total times;
   *************  **   ~~~   **   during Warmup 0 times;
   *************  **   ~~~   **   during Sizing 0 times.
   *************
   *************
   ************* ===== Final Error Summary =====
   ************* The following error categories occurred.  Consider correcting or noting.
   ************* Nominally Unused Constructions
   ************* ..The nominally unused constructions warning is provided to alert you to potential conditions that can cause
   ************* ..extra time during simulation. Each construction is calculated by the algorithm indicated in the HeatBalanceAlgorithm
   ************* ..object. You may remove the constructions indicated (when you use the DisplayExtraWarnings option).
   *************
   ************* EnergyPlus Warmup Error Summary. During Warmup: 0 Warning; 0 Severe Errors.
   ************* EnergyPlus Sizing Error Summary. During Sizing: 88 Warning; 0 Severe Errors.
   ************* EnergyPlus Completed Successfully-- 1414093 Warning; 0 Severe Errors; Elapsed Time=00hr 02min 15.16sec
