Program Version,EnergyPlus, Version 24.1.0-9d7789a3ac, YMD=2025.09.18 16:02
! This file shows details about the branches, nodes, and other
! elements of the flow connections.
! This file is intended for use in "debugging" potential problems
! that may also be detected by the program, but may be more easily
! identified by "eye".
! This file is also intended to support software which draws a
! schematic diagram of the HVAC system.
! ===============================================================
! #Nodes,<Number of Unique Nodes>
 #Nodes,219
! <Node>,<NodeNumber>,<Node Name>,<Node Fluid Type>,<# Times Node Referenced After Definition>
 Node,1,ACTIVE STORAGE ZN PSZ_14 DIFFUSER OUTLET AIR NODE,Air,4
 Node,2,ACTIVE STORAGE ZN RETURN AIR NODE,Air,2
 Node,3,BAKERY ZN PSZ_6 DIFFUSER OUTLET AIR NODE,Air,4
 Node,4,BAKERY ZN EXHAUST FAN INLET AIR NODE,Air,2
 Node,5,BAKERY ZN RETURN AIR NODE,Air,2
 Node,6,CORRIDOR ZN PSZ_12 DIFFUSER OUTLET AIR NODE,Air,4
 Node,7,CORRIDOR ZN RETURN AIR NODE,Air,2
 Node,8,DELI ZN PSZ_5 DIFFUSER OUTLET AIR NODE,Air,4
 Node,9,DELI ZN EXHAUST FAN INLET AIR NODE,Air,2
 Node,10,DELI ZN RETURN AIR NODE,Air,2
 Node,11,DINING ROOM ZN PSZ_9 DIFFUSER OUTLET AIR NODE,Air,4
 Node,12,DINING ROOM ZN RETURN AIR NODE,Air,2
 Node,13,EAST PERIMETER SALES ZN PSZ_3 DIFFUSER OUTLET AIR NODE,Air,4
 Node,14,EAST PERIMETER SALES ZN RETURN AIR NODE,Air,2
 Node,15,ENCLOSED OFFICE ZN PSZ_7 DIFFUSER OUTLET AIR NODE,Air,4
 Node,16,ENCLOSED OFFICE ZN RETURN AIR NODE,Air,2
 Node,17,MAIN SALES ZN PSZ_1 DIFFUSER OUTLET AIR NODE,Air,4
 Node,18,MAIN SALES ZN RETURN AIR NODE,Air,2
 Node,19,MECHANICAL ROOM ZN PSZ_11 DIFFUSER OUTLET AIR NODE,Air,4
 Node,20,MECHANICAL ROOM ZN RETURN AIR NODE,Air,2
 Node,21,MEETING ROOM ZN PSZ_8 DIFFUSER OUTLET AIR NODE,Air,4
 Node,22,MEETING ROOM ZN RETURN AIR NODE,Air,2
 Node,23,PRODUCE ZN PSZ_4 DIFFUSER OUTLET AIR NODE,Air,4
 Node,24,PRODUCE ZN RETURN AIR NODE,Air,2
 Node,25,RESTROOM ZN PSZ_10 DIFFUSER OUTLET AIR NODE,Air,4
 Node,26,RESTROOM ZN RETURN AIR NODE,Air,2
 Node,27,VESTIBULE ZN PSZ_13 DIFFUSER OUTLET AIR NODE,Air,4
 Node,28,VESTIBULE ZN RETURN AIR NODE,Air,2
 Node,29,WEST PERIMETER SALES ZN PSZ_2 DIFFUSER OUTLET AIR NODE,Air,4
 Node,30,WEST PERIMETER SALES ZN RETURN AIR NODE,Air,2
 Node,31,ACTIVE STORAGE ZN PSZ_14 SUPPLY OUTLET NODE,Air,6
 Node,32,ACTIVE STORAGE ZN PSZ_14 DEMAND INLET NODE,Air,3
 Node,33,BAKERY ZN PSZ_6 SUPPLY OUTLET NODE,Air,6
 Node,34,BAKERY ZN PSZ_6 DEMAND INLET NODE,Air,3
 Node,35,CORRIDOR ZN PSZ_12 SUPPLY OUTLET NODE,Air,6
 Node,36,CORRIDOR ZN PSZ_12 DEMAND INLET NODE,Air,3
 Node,37,DELI ZN PSZ_5 SUPPLY OUTLET NODE,Air,6
 Node,38,DELI ZN PSZ_5 DEMAND INLET NODE,Air,3
 Node,39,DINING ROOM ZN PSZ_9 SUPPLY OUTLET NODE,Air,6
 Node,40,DINING ROOM ZN PSZ_9 DEMAND INLET NODE,Air,3
 Node,41,EAST PERIMETER SALES ZN PSZ_3 SUPPLY OUTLET NODE,Air,6
 Node,42,EAST PERIMETER SALES ZN PSZ_3 DEMAND INLET NODE,Air,3
 Node,43,ENCLOSED OFFICE ZN PSZ_7 SUPPLY OUTLET NODE,Air,6
 Node,44,ENCLOSED OFFICE ZN PSZ_7 DEMAND INLET NODE,Air,3
 Node,45,MAIN SALES ZN PSZ_1 SUPPLY OUTLET NODE,Air,6
 Node,46,MAIN SALES ZN PSZ_1 DEMAND INLET NODE,Air,3
 Node,47,MECHANICAL ROOM ZN PSZ_11 SUPPLY OUTLET NODE,Air,6
 Node,48,MECHANICAL ROOM ZN PSZ_11 DEMAND INLET NODE,Air,3
 Node,49,MEETING ROOM ZN PSZ_8 SUPPLY OUTLET NODE,Air,6
 Node,50,MEETING ROOM ZN PSZ_8 DEMAND INLET NODE,Air,3
 Node,51,PRODUCE ZN PSZ_4 SUPPLY OUTLET NODE,Air,6
 Node,52,PRODUCE ZN PSZ_4 DEMAND INLET NODE,Air,3
 Node,53,RESTROOM ZN PSZ_10 SUPPLY OUTLET NODE,Air,6
 Node,54,RESTROOM ZN PSZ_10 DEMAND INLET NODE,Air,3
 Node,55,VESTIBULE ZN PSZ_13 SUPPLY OUTLET NODE,Air,6
 Node,56,VESTIBULE ZN PSZ_13 DEMAND INLET NODE,Air,3
 Node,57,WEST PERIMETER SALES ZN PSZ_2 SUPPLY OUTLET NODE,Air,6
 Node,58,WEST PERIMETER SALES ZN PSZ_2 DEMAND INLET NODE,Air,3
 Node,59,ACTIVE STORAGE ZN PSZ_14 SUPPLY INLET NODE,Air,3
 Node,60,ACTIVE STORAGE ZN PSZ_14 MIXED AIR NODE,Air,6
 Node,61,BAKERY ZN PSZ_6 SUPPLY INLET NODE,Air,3
 Node,62,BAKERY ZN PSZ_6 MIXED AIR NODE,Air,6
 Node,63,CORRIDOR ZN PSZ_12 SUPPLY INLET NODE,Air,3
 Node,64,CORRIDOR ZN PSZ_12 MIXED AIR NODE,Air,6
 Node,65,DELI ZN PSZ_5 SUPPLY INLET NODE,Air,3
 Node,66,DELI ZN PSZ_5 MIXED AIR NODE,Air,6
 Node,67,DINING ROOM ZN PSZ_9 SUPPLY INLET NODE,Air,3
 Node,68,DINING ROOM ZN PSZ_9 MIXED AIR NODE,Air,6
 Node,69,EAST PERIMETER SALES ZN PSZ_3 SUPPLY INLET NODE,Air,3
 Node,70,EAST PERIMETER SALES ZN PSZ_3 MIXED AIR NODE,Air,6
 Node,71,ENCLOSED OFFICE ZN PSZ_7 SUPPLY INLET NODE,Air,3
 Node,72,ENCLOSED OFFICE ZN PSZ_7 MIXED AIR NODE,Air,6
 Node,73,MAIN SALES ZN PSZ_1 SUPPLY INLET NODE,Air,3
 Node,74,MAIN SALES ZN PSZ_1 MIXED AIR NODE,Air,6
 Node,75,MECHANICAL ROOM ZN PSZ_11 SUPPLY INLET NODE,Air,3
 Node,76,MECHANICAL ROOM ZN PSZ_11 MIXED AIR NODE,Air,6
 Node,77,MEETING ROOM ZN PSZ_8 SUPPLY INLET NODE,Air,3
 Node,78,MEETING ROOM ZN PSZ_8 MIXED AIR NODE,Air,6
 Node,79,PRODUCE ZN PSZ_4 SUPPLY INLET NODE,Air,3
 Node,80,PRODUCE ZN PSZ_4 MIXED AIR NODE,Air,6
 Node,81,RESTROOM ZN PSZ_10 SUPPLY INLET NODE,Air,3
 Node,82,RESTROOM ZN PSZ_10 MIXED AIR NODE,Air,6
 Node,83,VESTIBULE ZN PSZ_13 SUPPLY INLET NODE,Air,3
 Node,84,VESTIBULE ZN PSZ_13 MIXED AIR NODE,Air,6
 Node,85,WEST PERIMETER SALES ZN PSZ_2 SUPPLY INLET NODE,Air,3
 Node,86,WEST PERIMETER SALES ZN PSZ_2 MIXED AIR NODE,Air,6
 Node,87,MAIN SERVICE WATER LOOP SUPPLY INLET NODE,Water,2
 Node,88,MAIN SERVICE WATER LOOP WATER MAINS PRESSURE DRIVEN OUTLET WATER NODE,Water,1
 Node,89,105GAL NATURAL GAS WATER HEATER - 2883KBTU/HR 0.801 THERM EFF SUPPLY INLET WATER NODE,Water,1
 Node,90,105GAL NATURAL GAS WATER HEATER - 2883KBTU/HR 0.801 THERM EFF SUPPLY OUTLET WATER NODE,Water,1
 Node,91,PIPE ADIABATIC 1 INLET WATER NODE,Water,1
 Node,92,PIPE ADIABATIC 1 OUTLET WATER NODE,Water,1
 Node,93,PIPE ADIABATIC 3 INLET WATER NODE,Water,1
 Node,94,MAIN SERVICE WATER LOOP SUPPLY OUTLET NODE,Water,4
 Node,95,MAIN SERVICE WATER LOOP DEMAND INLET NODE,Water,2
 Node,96,MAIN SERVICE WATER LOOP DEMAND INLET PIPE NODE,Water,1
 Node,97,PIPE ADIABATIC 2 INLET WATER NODE,Water,1
 Node,98,PIPE ADIABATIC 2 OUTLET WATER NODE,Water,1
 Node,99,MAIN WUC 0.17GPM AT 140F INLET WATER NODE,Water,1
 Node,100,MAIN WUC 0.17GPM AT 140F OUTLET WATER NODE,Water,1
 Node,101,MAIN SERVICE WATER LOOP DEMAND BYPASS PIPE INLET NODE,Water,1
 Node,102,MAIN SERVICE WATER LOOP DEMAND BYPASS PIPE OUTLET NODE,Water,1
 Node,103,PIPE ADIABATIC 4 INLET WATER NODE,Water,1
 Node,104,MAIN SERVICE WATER LOOP DEMAND OUTLET NODE,Water,2
 Node,105,ACTIVE STORAGE ZN ZONE AIR NODE,Air,1
 Node,106,BAKERY ZN ZONE AIR NODE,Air,1
 Node,107,CORRIDOR ZN ZONE AIR NODE,Air,1
 Node,108,DELI ZN ZONE AIR NODE,Air,1
 Node,109,DINING ROOM ZN ZONE AIR NODE,Air,1
 Node,110,EAST PERIMETER SALES ZN ZONE AIR NODE,Air,1
 Node,111,ENCLOSED OFFICE ZN ZONE AIR NODE,Air,1
 Node,112,MAIN SALES ZN ZONE AIR NODE,Air,1
 Node,113,MECHANICAL ROOM ZN ZONE AIR NODE,Air,1
 Node,114,MEETING ROOM ZN ZONE AIR NODE,Air,1
 Node,115,PRODUCE ZN ZONE AIR NODE,Air,1
 Node,116,RESTROOM ZN ZONE AIR NODE,Air,1
 Node,117,VESTIBULE ZN ZONE AIR NODE,Air,1
 Node,118,WEST PERIMETER SALES ZN ZONE AIR NODE,Air,1
 Node,119,ACTIVE STORAGE ZN PSZ_14 DEMAND OUTLET NODE,Air,2
 Node,120,BAKERY ZN PSZ_6 DEMAND OUTLET NODE,Air,2
 Node,121,CORRIDOR ZN PSZ_12 DEMAND OUTLET NODE,Air,2
 Node,122,DELI ZN PSZ_5 DEMAND OUTLET NODE,Air,2
 Node,123,DINING ROOM ZN PSZ_9 DEMAND OUTLET NODE,Air,2
 Node,124,EAST PERIMETER SALES ZN PSZ_3 DEMAND OUTLET NODE,Air,2
 Node,125,ENCLOSED OFFICE ZN PSZ_7 DEMAND OUTLET NODE,Air,2
 Node,126,MAIN SALES ZN PSZ_1 DEMAND OUTLET NODE,Air,2
 Node,127,MECHANICAL ROOM ZN PSZ_11 DEMAND OUTLET NODE,Air,2
 Node,128,MEETING ROOM ZN PSZ_8 DEMAND OUTLET NODE,Air,2
 Node,129,PRODUCE ZN PSZ_4 DEMAND OUTLET NODE,Air,2
 Node,130,RESTROOM ZN PSZ_10 DEMAND OUTLET NODE,Air,2
 Node,131,VESTIBULE ZN PSZ_13 DEMAND OUTLET NODE,Air,2
 Node,132,WEST PERIMETER SALES ZN PSZ_2 DEMAND OUTLET NODE,Air,2
 Node,133,ACTIVE STORAGE ZN PSZ_14 OUTDOOR AIR NODE,Air,2
 Node,134,BAKERY ZN PSZ_6 OUTDOOR AIR NODE,Air,2
 Node,135,CORRIDOR ZN PSZ_12 OUTDOOR AIR NODE,Air,2
 Node,136,DELI ZN PSZ_5 OUTDOOR AIR NODE,Air,2
 Node,137,DINING ROOM ZN PSZ_9 OUTDOOR AIR NODE,Air,2
 Node,138,EAST PERIMETER SALES ZN PSZ_3 OUTDOOR AIR NODE,Air,2
 Node,139,ENCLOSED OFFICE ZN PSZ_7 OUTDOOR AIR NODE,Air,2
 Node,140,MAIN SALES ZN PSZ_1 OUTDOOR AIR NODE,Air,2
 Node,141,MECHANICAL ROOM ZN PSZ_11 OUTDOOR AIR NODE,Air,2
 Node,142,MEETING ROOM ZN PSZ_8 OUTDOOR AIR NODE,Air,2
 Node,143,PRODUCE ZN PSZ_4 OUTDOOR AIR NODE,Air,2
 Node,144,RESTROOM ZN PSZ_10 OUTDOOR AIR NODE,Air,2
 Node,145,VESTIBULE ZN PSZ_13 OUTDOOR AIR NODE,Air,2
 Node,146,WEST PERIMETER SALES ZN PSZ_2 OUTDOOR AIR NODE,Air,2
 Node,147,MODEL OUTDOOR AIR NODE,Air,0
 Node,148,ACTIVE STORAGE ZN PSZ_14 UNITARY AC HEATING COIL - FAN NODE,Air,2
 Node,149,ACTIVE STORAGE ZN PSZ_14 UNITARY AC FAN - SUPPLEMENTAL COIL NODE,Air,2
 Node,150,BAKERY ZN PSZ_6 UNITARY AC HEATING COIL - FAN NODE,Air,2
 Node,151,BAKERY ZN PSZ_6 UNITARY AC FAN - SUPPLEMENTAL COIL NODE,Air,2
 Node,152,CORRIDOR ZN PSZ_12 UNITARY AC HEATING COIL - FAN NODE,Air,2
 Node,153,CORRIDOR ZN PSZ_12 UNITARY AC FAN - SUPPLEMENTAL COIL NODE,Air,2
 Node,154,DELI ZN PSZ_5 UNITARY AC HEATING COIL - FAN NODE,Air,2
 Node,155,DELI ZN PSZ_5 UNITARY AC FAN - SUPPLEMENTAL COIL NODE,Air,2
 Node,156,DINING ROOM ZN PSZ_9 UNITARY AC HEATING COIL - FAN NODE,Air,2
 Node,157,DINING ROOM ZN PSZ_9 UNITARY AC FAN - SUPPLEMENTAL COIL NODE,Air,2
 Node,158,EAST PERIMETER SALES ZN PSZ_3 UNITARY AC HEATING COIL - FAN NODE,Air,2
 Node,159,EAST PERIMETER SALES ZN PSZ_3 UNITARY AC FAN - SUPPLEMENTAL COIL NODE,Air,2
 Node,160,ENCLOSED OFFICE ZN PSZ_7 UNITARY AC HEATING COIL - FAN NODE,Air,2
 Node,161,ENCLOSED OFFICE ZN PSZ_7 UNITARY AC FAN - SUPPLEMENTAL COIL NODE,Air,2
 Node,162,MAIN SALES ZN PSZ_1 UNITARY AC HEATING COIL - FAN NODE,Air,2
 Node,163,MAIN SALES ZN PSZ_1 UNITARY AC FAN - SUPPLEMENTAL COIL NODE,Air,2
 Node,164,MECHANICAL ROOM ZN PSZ_11 UNITARY AC HEATING COIL - FAN NODE,Air,2
 Node,165,MECHANICAL ROOM ZN PSZ_11 UNITARY AC FAN - SUPPLEMENTAL COIL NODE,Air,2
 Node,166,MEETING ROOM ZN PSZ_8 UNITARY AC HEATING COIL - FAN NODE,Air,2
 Node,167,MEETING ROOM ZN PSZ_8 UNITARY AC FAN - SUPPLEMENTAL COIL NODE,Air,2
 Node,168,PRODUCE ZN PSZ_4 UNITARY AC HEATING COIL - FAN NODE,Air,2
 Node,169,PRODUCE ZN PSZ_4 UNITARY AC FAN - SUPPLEMENTAL COIL NODE,Air,2
 Node,170,RESTROOM ZN PSZ_10 UNITARY AC HEATING COIL - FAN NODE,Air,2
 Node,171,RESTROOM ZN PSZ_10 UNITARY AC FAN - SUPPLEMENTAL COIL NODE,Air,2
 Node,172,VESTIBULE ZN PSZ_13 UNITARY AC HEATING COIL - FAN NODE,Air,2
 Node,173,VESTIBULE ZN PSZ_13 UNITARY AC FAN - SUPPLEMENTAL COIL NODE,Air,2
 Node,174,WEST PERIMETER SALES ZN PSZ_2 UNITARY AC HEATING COIL - FAN NODE,Air,2
 Node,175,WEST PERIMETER SALES ZN PSZ_2 UNITARY AC FAN - SUPPLEMENTAL COIL NODE,Air,2
 Node,176,ACTIVE STORAGE ZN PSZ_14 DIFFUSER INLET AIR NODE,Air,1
 Node,177,BAKERY ZN PSZ_6 DIFFUSER INLET AIR NODE,Air,1
 Node,178,CORRIDOR ZN PSZ_12 DIFFUSER INLET AIR NODE,Air,1
 Node,179,DELI ZN PSZ_5 DIFFUSER INLET AIR NODE,Air,1
 Node,180,DINING ROOM ZN PSZ_9 DIFFUSER INLET AIR NODE,Air,1
 Node,181,EAST PERIMETER SALES ZN PSZ_3 DIFFUSER INLET AIR NODE,Air,1
 Node,182,ENCLOSED OFFICE ZN PSZ_7 DIFFUSER INLET AIR NODE,Air,1
 Node,183,MAIN SALES ZN PSZ_1 DIFFUSER INLET AIR NODE,Air,1
 Node,184,MECHANICAL ROOM ZN PSZ_11 DIFFUSER INLET AIR NODE,Air,1
 Node,185,MEETING ROOM ZN PSZ_8 DIFFUSER INLET AIR NODE,Air,1
 Node,186,PRODUCE ZN PSZ_4 DIFFUSER INLET AIR NODE,Air,1
 Node,187,RESTROOM ZN PSZ_10 DIFFUSER INLET AIR NODE,Air,1
 Node,188,VESTIBULE ZN PSZ_13 DIFFUSER INLET AIR NODE,Air,1
 Node,189,WEST PERIMETER SALES ZN PSZ_2 DIFFUSER INLET AIR NODE,Air,1
 Node,190,BAKERY ZN EXHAUST FAN OUTLET AIR NODE,Air,0
 Node,191,DELI ZN EXHAUST FAN OUTLET AIR NODE,Air,0
 Node,192,ACTIVE STORAGE ZN PSZ_14 RELIEF AIR NODE,Air,1
 Node,193,BAKERY ZN PSZ_6 RELIEF AIR NODE,Air,1
 Node,194,CORRIDOR ZN PSZ_12 RELIEF AIR NODE,Air,1
 Node,195,DELI ZN PSZ_5 RELIEF AIR NODE,Air,1
 Node,196,DINING ROOM ZN PSZ_9 RELIEF AIR NODE,Air,1
 Node,197,EAST PERIMETER SALES ZN PSZ_3 RELIEF AIR NODE,Air,1
 Node,198,ENCLOSED OFFICE ZN PSZ_7 RELIEF AIR NODE,Air,1
 Node,199,MAIN SALES ZN PSZ_1 RELIEF AIR NODE,Air,1
 Node,200,MECHANICAL ROOM ZN PSZ_11 RELIEF AIR NODE,Air,1
 Node,201,MEETING ROOM ZN PSZ_8 RELIEF AIR NODE,Air,1
 Node,202,PRODUCE ZN PSZ_4 RELIEF AIR NODE,Air,1
 Node,203,RESTROOM ZN PSZ_10 RELIEF AIR NODE,Air,1
 Node,204,VESTIBULE ZN PSZ_13 RELIEF AIR NODE,Air,1
 Node,205,WEST PERIMETER SALES ZN PSZ_2 RELIEF AIR NODE,Air,1
 Node,206,ACTIVE STORAGE ZN PSZ_14 UNITARY AC COOLING COIL - HEATING COIL NODE,Air,1
 Node,207,BAKERY ZN PSZ_6 UNITARY AC COOLING COIL - HEATING COIL NODE,Air,1
 Node,208,CORRIDOR ZN PSZ_12 UNITARY AC COOLING COIL - HEATING COIL NODE,Air,1
 Node,209,DELI ZN PSZ_5 UNITARY AC COOLING COIL - HEATING COIL NODE,Air,1
 Node,210,DINING ROOM ZN PSZ_9 UNITARY AC COOLING COIL - HEATING COIL NODE,Air,1
 Node,211,EAST PERIMETER SALES ZN PSZ_3 UNITARY AC COOLING COIL - HEATING COIL NODE,Air,1
 Node,212,ENCLOSED OFFICE ZN PSZ_7 UNITARY AC COOLING COIL - HEATING COIL NODE,Air,1
 Node,213,MAIN SALES ZN PSZ_1 UNITARY AC COOLING COIL - HEATING COIL NODE,Air,1
 Node,214,MECHANICAL ROOM ZN PSZ_11 UNITARY AC COOLING COIL - HEATING COIL NODE,Air,1
 Node,215,MEETING ROOM ZN PSZ_8 UNITARY AC COOLING COIL - HEATING COIL NODE,Air,1
 Node,216,PRODUCE ZN PSZ_4 UNITARY AC COOLING COIL - HEATING COIL NODE,Air,1
 Node,217,RESTROOM ZN PSZ_10 UNITARY AC COOLING COIL - HEATING COIL NODE,Air,1
 Node,218,VESTIBULE ZN PSZ_13 UNITARY AC COOLING COIL - HEATING COIL NODE,Air,1
 Node,219,WEST PERIMETER SALES ZN PSZ_2 UNITARY AC COOLING COIL - HEATING COIL NODE,Air,1
! ===============================================================
! Suspicious nodes have 0 references.  It is normal for some nodes, however.
! Listing nodes with 0 references (culled from previous list):
! <Suspicious Node>,<NodeNumber>,<Node Name>,<Node Fluid Type>,<# Times Node Referenced After Definition>
 Suspicious Node,147,MODEL OUTDOOR AIR NODE,Air,0
 Suspicious Node,190,BAKERY ZN EXHAUST FAN OUTLET AIR NODE,Air,0
 Suspicious Node,191,DELI ZN EXHAUST FAN OUTLET AIR NODE,Air,0
! ===============================================================
! <#Branch Lists>,<Number of Branch Lists>
 #Branch Lists,16
! <Branch List>,<Branch List Count>,<Branch List Name>,<Loop Name>,<Loop Type>,<Number of Branches>
! <Branch>,<Branch Count>,<Branch Name>,<Loop Name>,<Loop Type>,<Branch Inlet Node Name>,<Branch Outlet Node Name>
 Branch List,1,ACTIVE STORAGE ZN PSZ_14 SUPPLY BRANCHES,ACTIVE STORAGE ZN PSZ_14,Air,1
   Branch,1,ACTIVE STORAGE ZN PSZ_14 MAIN BRANCH,ACTIVE STORAGE ZN PSZ_14,Air,ACTIVE STORAGE ZN PSZ_14 SUPPLY INLET NODE,ACTIVE STORAGE ZN PSZ_14 SUPPLY OUTLET NODE
 Branch List,2,BAKERY ZN PSZ_6 SUPPLY BRANCHES,BAKERY ZN PSZ_6,Air,1
   Branch,1,BAKERY ZN PSZ_6 MAIN BRANCH,BAKERY ZN PSZ_6,Air,BAKERY ZN PSZ_6 SUPPLY INLET NODE,BAKERY ZN PSZ_6 SUPPLY OUTLET NODE
 Branch List,3,CORRIDOR ZN PSZ_12 SUPPLY BRANCHES,CORRIDOR ZN PSZ_12,Air,1
   Branch,1,CORRIDOR ZN PSZ_12 MAIN BRANCH,CORRIDOR ZN PSZ_12,Air,CORRIDOR ZN PSZ_12 SUPPLY INLET NODE,CORRIDOR ZN PSZ_12 SUPPLY OUTLET NODE
 Branch List,4,DELI ZN PSZ_5 SUPPLY BRANCHES,DELI ZN PSZ_5,Air,1
   Branch,1,DELI ZN PSZ_5 MAIN BRANCH,DELI ZN PSZ_5,Air,DELI ZN PSZ_5 SUPPLY INLET NODE,DELI ZN PSZ_5 SUPPLY OUTLET NODE
 Branch List,5,DINING ROOM ZN PSZ_9 SUPPLY BRANCHES,DINING ROOM ZN PSZ_9,Air,1
   Branch,1,DINING ROOM ZN PSZ_9 MAIN BRANCH,DINING ROOM ZN PSZ_9,Air,DINING ROOM ZN PSZ_9 SUPPLY INLET NODE,DINING ROOM ZN PSZ_9 SUPPLY OUTLET NODE
 Branch List,6,EAST PERIMETER SALES ZN PSZ_3 SUPPLY BRANCHES,EAST PERIMETER SALES ZN PSZ_3,Air,1
   Branch,1,EAST PERIMETER SALES ZN PSZ_3 MAIN BRANCH,EAST PERIMETER SALES ZN PSZ_3,Air,EAST PERIMETER SALES ZN PSZ_3 SUPPLY INLET NODE,EAST PERIMETER SALES ZN PSZ_3 SUPPLY OUTLET NODE
 Branch List,7,ENCLOSED OFFICE ZN PSZ_7 SUPPLY BRANCHES,ENCLOSED OFFICE ZN PSZ_7,Air,1
   Branch,1,ENCLOSED OFFICE ZN PSZ_7 MAIN BRANCH,ENCLOSED OFFICE ZN PSZ_7,Air,ENCLOSED OFFICE ZN PSZ_7 SUPPLY INLET NODE,ENCLOSED OFFICE ZN PSZ_7 SUPPLY OUTLET NODE
 Branch List,8,MAIN SALES ZN PSZ_1 SUPPLY BRANCHES,MAIN SALES ZN PSZ_1,Air,1
   Branch,1,MAIN SALES ZN PSZ_1 MAIN BRANCH,MAIN SALES ZN PSZ_1,Air,MAIN SALES ZN PSZ_1 SUPPLY INLET NODE,MAIN SALES ZN PSZ_1 SUPPLY OUTLET NODE
 Branch List,9,MECHANICAL ROOM ZN PSZ_11 SUPPLY BRANCHES,MECHANICAL ROOM ZN PSZ_11,Air,1
   Branch,1,MECHANICAL ROOM ZN PSZ_11 MAIN BRANCH,MECHANICAL ROOM ZN PSZ_11,Air,MECHANICAL ROOM ZN PSZ_11 SUPPLY INLET NODE,MECHANICAL ROOM ZN PSZ_11 SUPPLY OUTLET NODE
 Branch List,10,MEETING ROOM ZN PSZ_8 SUPPLY BRANCHES,MEETING ROOM ZN PSZ_8,Air,1
   Branch,1,MEETING ROOM ZN PSZ_8 MAIN BRANCH,MEETING ROOM ZN PSZ_8,Air,MEETING ROOM ZN PSZ_8 SUPPLY INLET NODE,MEETING ROOM ZN PSZ_8 SUPPLY OUTLET NODE
 Branch List,11,PRODUCE ZN PSZ_4 SUPPLY BRANCHES,PRODUCE ZN PSZ_4,Air,1
   Branch,1,PRODUCE ZN PSZ_4 MAIN BRANCH,PRODUCE ZN PSZ_4,Air,PRODUCE ZN PSZ_4 SUPPLY INLET NODE,PRODUCE ZN PSZ_4 SUPPLY OUTLET NODE
 Branch List,12,RESTROOM ZN PSZ_10 SUPPLY BRANCHES,RESTROOM ZN PSZ_10,Air,1
   Branch,1,RESTROOM ZN PSZ_10 MAIN BRANCH,RESTROOM ZN PSZ_10,Air,RESTROOM ZN PSZ_10 SUPPLY INLET NODE,RESTROOM ZN PSZ_10 SUPPLY OUTLET NODE
 Branch List,13,VESTIBULE ZN PSZ_13 SUPPLY BRANCHES,VESTIBULE ZN PSZ_13,Air,1
   Branch,1,VESTIBULE ZN PSZ_13 MAIN BRANCH,VESTIBULE ZN PSZ_13,Air,VESTIBULE ZN PSZ_13 SUPPLY INLET NODE,VESTIBULE ZN PSZ_13 SUPPLY OUTLET NODE
 Branch List,14,WEST PERIMETER SALES ZN PSZ_2 SUPPLY BRANCHES,WEST PERIMETER SALES ZN PSZ_2,Air,1
   Branch,1,WEST PERIMETER SALES ZN PSZ_2 MAIN BRANCH,WEST PERIMETER SALES ZN PSZ_2,Air,WEST PERIMETER SALES ZN PSZ_2 SUPPLY INLET NODE,WEST PERIMETER SALES ZN PSZ_2 SUPPLY OUTLET NODE
 Branch List,15,MAIN SERVICE WATER LOOP SUPPLY BRANCHES,MAIN SERVICE WATER LOOP,Plant Supply,4
   Branch,1,MAIN SERVICE WATER LOOP SUPPLY INLET BRANCH,MAIN SERVICE WATER LOOP,Plant Supply,MAIN SERVICE WATER LOOP SUPPLY INLET NODE,MAIN SERVICE WATER LOOP WATER MAINS PRESSURE DRIVEN OUTLET WATER NODE
   Branch,2,MAIN SERVICE WATER LOOP SUPPLY BRANCH 1,MAIN SERVICE WATER LOOP,Plant Supply,105GAL NATURAL GAS WATER HEATER - 2883KBTU/HR 0.801 THERM EFF SUPPLY INLET WATER NODE,105GAL NATURAL GAS WATER HEATER - 2883KBTU/HR 0.801 THERM EFF SUPPLY OUTLET WATER NODE
   Branch,3,MAIN SERVICE WATER LOOP SUPPLY BRANCH 2,MAIN SERVICE WATER LOOP,Plant Supply,PIPE ADIABATIC 1 INLET WATER NODE,PIPE ADIABATIC 1 OUTLET WATER NODE
   Branch,4,MAIN SERVICE WATER LOOP SUPPLY OUTLET BRANCH,MAIN SERVICE WATER LOOP,Plant Supply,PIPE ADIABATIC 3 INLET WATER NODE,MAIN SERVICE WATER LOOP SUPPLY OUTLET NODE
 Branch List,16,MAIN SERVICE WATER LOOP DEMAND BRANCHES,MAIN SERVICE WATER LOOP,Plant Demand,5
   Branch,1,MAIN SERVICE WATER LOOP DEMAND INLET BRANCH,MAIN SERVICE WATER LOOP,Plant Demand,MAIN SERVICE WATER LOOP DEMAND INLET NODE,MAIN SERVICE WATER LOOP DEMAND INLET PIPE NODE
   Branch,2,MAIN SERVICE WATER LOOP DEMAND BRANCH 1,MAIN SERVICE WATER LOOP,Plant Demand,PIPE ADIABATIC 2 INLET WATER NODE,PIPE ADIABATIC 2 OUTLET WATER NODE
   Branch,3,MAIN SERVICE WATER LOOP DEMAND BRANCH 2,MAIN SERVICE WATER LOOP,Plant Demand,MAIN WUC 0.17GPM AT 140F INLET WATER NODE,MAIN WUC 0.17GPM AT 140F OUTLET WATER NODE
   Branch,4,MAIN SERVICE WATER LOOP DEMAND BYPASS BRANCH,MAIN SERVICE WATER LOOP,Plant Demand,MAIN SERVICE WATER LOOP DEMAND BYPASS PIPE INLET NODE,MAIN SERVICE WATER LOOP DEMAND BYPASS PIPE OUTLET NODE
   Branch,5,MAIN SERVICE WATER LOOP DEMAND OUTLET BRANCH,MAIN SERVICE WATER LOOP,Plant Demand,PIPE ADIABATIC 4 INLET WATER NODE,MAIN SERVICE WATER LOOP DEMAND OUTLET NODE
! ===============================================================
! <#Supply Air Paths>,<Number of Supply Air Paths>
 #Supply Air Paths,14
! <Supply Air Path>,<Supply Air Path Count>,<Supply Air Path Name>,<AirLoopHVAC Name>
! <#Components on Supply Air Path>,<Number of Components>
! <Supply Air Path Component>,<Component Count>,<Component Type>,<Component Name>,<AirLoopHVAC Name>
! <#Outlet Nodes on Supply Air Path Component>,<Number of Nodes>
! <Supply Air Path Component Nodes>,<Node Count>,<Component Type>,<Component Name>,<Inlet Node Name>,<Outlet Node Name>,<AirLoopHVAC Name>
 Supply Air Path,1,ACTIVE STORAGE ZN PSZ_14 ACTIVE STORAGE ZN PSZ_14 DEMAND INLET NODE SUPPLY PATH,ACTIVE STORAGE ZN PSZ_14
   #Components on Supply Air Path,1
   Supply Air Path Component,1,AIRLOOPHVAC:ZONESPLITTER,AIR LOOP HVAC ZONE SPLITTER 14,ACTIVE STORAGE ZN PSZ_14
     #Outlet Nodes on Supply Air Path Component,1
     Supply Air Path Component Nodes,1,AIRLOOPHVAC:ZONESPLITTER,AIR LOOP HVAC ZONE SPLITTER 14,ACTIVE STORAGE ZN PSZ_14 DEMAND INLET NODE,ACTIVE STORAGE ZN PSZ_14 DIFFUSER INLET AIR NODE,ACTIVE STORAGE ZN PSZ_14
! <#Nodes on Supply Air Path>,<Number of Nodes>
! <Supply Air Path Node>,<Node Type>,<Node Count>,<Node Name>,<AirLoopHVAC Name>
#Nodes on Supply Air Path,2
   Supply Air Path Node,Inlet Node,1,ACTIVE STORAGE ZN PSZ_14 DEMAND INLET NODE,ACTIVE STORAGE ZN PSZ_14
   Supply Air Path Node,Outlet Node,2,ACTIVE STORAGE ZN PSZ_14 DIFFUSER INLET AIR NODE,ACTIVE STORAGE ZN PSZ_14
 Supply Air Path,2,BAKERY ZN PSZ_6 BAKERY ZN PSZ_6 DEMAND INLET NODE SUPPLY PATH,BAKERY ZN PSZ_6
   #Components on Supply Air Path,1
   Supply Air Path Component,1,AIRLOOPHVAC:ZONESPLITTER,AIR LOOP HVAC ZONE SPLITTER 6,BAKERY ZN PSZ_6
     #Outlet Nodes on Supply Air Path Component,1
     Supply Air Path Component Nodes,1,AIRLOOPHVAC:ZONESPLITTER,AIR LOOP HVAC ZONE SPLITTER 6,BAKERY ZN PSZ_6 DEMAND INLET NODE,BAKERY ZN PSZ_6 DIFFUSER INLET AIR NODE,BAKERY ZN PSZ_6
! <#Nodes on Supply Air Path>,<Number of Nodes>
! <Supply Air Path Node>,<Node Type>,<Node Count>,<Node Name>,<AirLoopHVAC Name>
#Nodes on Supply Air Path,2
   Supply Air Path Node,Inlet Node,1,BAKERY ZN PSZ_6 DEMAND INLET NODE,BAKERY ZN PSZ_6
   Supply Air Path Node,Outlet Node,2,BAKERY ZN PSZ_6 DIFFUSER INLET AIR NODE,BAKERY ZN PSZ_6
 Supply Air Path,3,CORRIDOR ZN PSZ_12 CORRIDOR ZN PSZ_12 DEMAND INLET NODE SUPPLY PATH,CORRIDOR ZN PSZ_12
   #Components on Supply Air Path,1
   Supply Air Path Component,1,AIRLOOPHVAC:ZONESPLITTER,AIR LOOP HVAC ZONE SPLITTER 12,CORRIDOR ZN PSZ_12
     #Outlet Nodes on Supply Air Path Component,1
     Supply Air Path Component Nodes,1,AIRLOOPHVAC:ZONESPLITTER,AIR LOOP HVAC ZONE SPLITTER 12,CORRIDOR ZN PSZ_12 DEMAND INLET NODE,CORRIDOR ZN PSZ_12 DIFFUSER INLET AIR NODE,CORRIDOR ZN PSZ_12
! <#Nodes on Supply Air Path>,<Number of Nodes>
! <Supply Air Path Node>,<Node Type>,<Node Count>,<Node Name>,<AirLoopHVAC Name>
#Nodes on Supply Air Path,2
   Supply Air Path Node,Inlet Node,1,CORRIDOR ZN PSZ_12 DEMAND INLET NODE,CORRIDOR ZN PSZ_12
   Supply Air Path Node,Outlet Node,2,CORRIDOR ZN PSZ_12 DIFFUSER INLET AIR NODE,CORRIDOR ZN PSZ_12
 Supply Air Path,4,DELI ZN PSZ_5 DELI ZN PSZ_5 DEMAND INLET NODE SUPPLY PATH,DELI ZN PSZ_5
   #Components on Supply Air Path,1
   Supply Air Path Component,1,AIRLOOPHVAC:ZONESPLITTER,AIR LOOP HVAC ZONE SPLITTER 5,DELI ZN PSZ_5
     #Outlet Nodes on Supply Air Path Component,1
     Supply Air Path Component Nodes,1,AIRLOOPHVAC:ZONESPLITTER,AIR LOOP HVAC ZONE SPLITTER 5,DELI ZN PSZ_5 DEMAND INLET NODE,DELI ZN PSZ_5 DIFFUSER INLET AIR NODE,DELI ZN PSZ_5
! <#Nodes on Supply Air Path>,<Number of Nodes>
! <Supply Air Path Node>,<Node Type>,<Node Count>,<Node Name>,<AirLoopHVAC Name>
#Nodes on Supply Air Path,2
   Supply Air Path Node,Inlet Node,1,DELI ZN PSZ_5 DEMAND INLET NODE,DELI ZN PSZ_5
   Supply Air Path Node,Outlet Node,2,DELI ZN PSZ_5 DIFFUSER INLET AIR NODE,DELI ZN PSZ_5
 Supply Air Path,5,DINING ROOM ZN PSZ_9 DINING ROOM ZN PSZ_9 DEMAND INLET NODE SUPPLY PATH,DINING ROOM ZN PSZ_9
   #Components on Supply Air Path,1
   Supply Air Path Component,1,AIRLOOPHVAC:ZONESPLITTER,AIR LOOP HVAC ZONE SPLITTER 9,DINING ROOM ZN PSZ_9
     #Outlet Nodes on Supply Air Path Component,1
     Supply Air Path Component Nodes,1,AIRLOOPHVAC:ZONESPLITTER,AIR LOOP HVAC ZONE SPLITTER 9,DINING ROOM ZN PSZ_9 DEMAND INLET NODE,DINING ROOM ZN PSZ_9 DIFFUSER INLET AIR NODE,DINING ROOM ZN PSZ_9
! <#Nodes on Supply Air Path>,<Number of Nodes>
! <Supply Air Path Node>,<Node Type>,<Node Count>,<Node Name>,<AirLoopHVAC Name>
#Nodes on Supply Air Path,2
   Supply Air Path Node,Inlet Node,1,DINING ROOM ZN PSZ_9 DEMAND INLET NODE,DINING ROOM ZN PSZ_9
   Supply Air Path Node,Outlet Node,2,DINING ROOM ZN PSZ_9 DIFFUSER INLET AIR NODE,DINING ROOM ZN PSZ_9
 Supply Air Path,6,EAST PERIMETER SALES ZN PSZ_3 EAST PERIMETER SALES ZN PSZ_3 DEMAND INLET NODE SUPPLY PATH,EAST PERIMETER SALES ZN PSZ_3
   #Components on Supply Air Path,1
   Supply Air Path Component,1,AIRLOOPHVAC:ZONESPLITTER,AIR LOOP HVAC ZONE SPLITTER 3,EAST PERIMETER SALES ZN PSZ_3
     #Outlet Nodes on Supply Air Path Component,1
     Supply Air Path Component Nodes,1,AIRLOOPHVAC:ZONESPLITTER,AIR LOOP HVAC ZONE SPLITTER 3,EAST PERIMETER SALES ZN PSZ_3 DEMAND INLET NODE,EAST PERIMETER SALES ZN PSZ_3 DIFFUSER INLET AIR NODE,EAST PERIMETER SALES ZN PSZ_3
! <#Nodes on Supply Air Path>,<Number of Nodes>
! <Supply Air Path Node>,<Node Type>,<Node Count>,<Node Name>,<AirLoopHVAC Name>
#Nodes on Supply Air Path,2
   Supply Air Path Node,Inlet Node,1,EAST PERIMETER SALES ZN PSZ_3 DEMAND INLET NODE,EAST PERIMETER SALES ZN PSZ_3
   Supply Air Path Node,Outlet Node,2,EAST PERIMETER SALES ZN PSZ_3 DIFFUSER INLET AIR NODE,EAST PERIMETER SALES ZN PSZ_3
 Supply Air Path,7,ENCLOSED OFFICE ZN PSZ_7 ENCLOSED OFFICE ZN PSZ_7 DEMAND INLET NODE SUPPLY PATH,ENCLOSED OFFICE ZN PSZ_7
   #Components on Supply Air Path,1
   Supply Air Path Component,1,AIRLOOPHVAC:ZONESPLITTER,AIR LOOP HVAC ZONE SPLITTER 7,ENCLOSED OFFICE ZN PSZ_7
     #Outlet Nodes on Supply Air Path Component,1
     Supply Air Path Component Nodes,1,AIRLOOPHVAC:ZONESPLITTER,AIR LOOP HVAC ZONE SPLITTER 7,ENCLOSED OFFICE ZN PSZ_7 DEMAND INLET NODE,ENCLOSED OFFICE ZN PSZ_7 DIFFUSER INLET AIR NODE,ENCLOSED OFFICE ZN PSZ_7
! <#Nodes on Supply Air Path>,<Number of Nodes>
! <Supply Air Path Node>,<Node Type>,<Node Count>,<Node Name>,<AirLoopHVAC Name>
#Nodes on Supply Air Path,2
   Supply Air Path Node,Inlet Node,1,ENCLOSED OFFICE ZN PSZ_7 DEMAND INLET NODE,ENCLOSED OFFICE ZN PSZ_7
   Supply Air Path Node,Outlet Node,2,ENCLOSED OFFICE ZN PSZ_7 DIFFUSER INLET AIR NODE,ENCLOSED OFFICE ZN PSZ_7
 Supply Air Path,8,MAIN SALES ZN PSZ_1 MAIN SALES ZN PSZ_1 DEMAND INLET NODE SUPPLY PATH,MAIN SALES ZN PSZ_1
   #Components on Supply Air Path,1
   Supply Air Path Component,1,AIRLOOPHVAC:ZONESPLITTER,AIR LOOP HVAC ZONE SPLITTER 1,MAIN SALES ZN PSZ_1
     #Outlet Nodes on Supply Air Path Component,1
     Supply Air Path Component Nodes,1,AIRLOOPHVAC:ZONESPLITTER,AIR LOOP HVAC ZONE SPLITTER 1,MAIN SALES ZN PSZ_1 DEMAND INLET NODE,MAIN SALES ZN PSZ_1 DIFFUSER INLET AIR NODE,MAIN SALES ZN PSZ_1
! <#Nodes on Supply Air Path>,<Number of Nodes>
! <Supply Air Path Node>,<Node Type>,<Node Count>,<Node Name>,<AirLoopHVAC Name>
#Nodes on Supply Air Path,2
   Supply Air Path Node,Inlet Node,1,MAIN SALES ZN PSZ_1 DEMAND INLET NODE,MAIN SALES ZN PSZ_1
   Supply Air Path Node,Outlet Node,2,MAIN SALES ZN PSZ_1 DIFFUSER INLET AIR NODE,MAIN SALES ZN PSZ_1
 Supply Air Path,9,MECHANICAL ROOM ZN PSZ_11 MECHANICAL ROOM ZN PSZ_11 DEMAND INLET NODE SUPPLY PATH,MECHANICAL ROOM ZN PSZ_11
   #Components on Supply Air Path,1
   Supply Air Path Component,1,AIRLOOPHVAC:ZONESPLITTER,AIR LOOP HVAC ZONE SPLITTER 11,MECHANICAL ROOM ZN PSZ_11
     #Outlet Nodes on Supply Air Path Component,1
     Supply Air Path Component Nodes,1,AIRLOOPHVAC:ZONESPLITTER,AIR LOOP HVAC ZONE SPLITTER 11,MECHANICAL ROOM ZN PSZ_11 DEMAND INLET NODE,MECHANICAL ROOM ZN PSZ_11 DIFFUSER INLET AIR NODE,MECHANICAL ROOM ZN PSZ_11
! <#Nodes on Supply Air Path>,<Number of Nodes>
! <Supply Air Path Node>,<Node Type>,<Node Count>,<Node Name>,<AirLoopHVAC Name>
#Nodes on Supply Air Path,2
   Supply Air Path Node,Inlet Node,1,MECHANICAL ROOM ZN PSZ_11 DEMAND INLET NODE,MECHANICAL ROOM ZN PSZ_11
   Supply Air Path Node,Outlet Node,2,MECHANICAL ROOM ZN PSZ_11 DIFFUSER INLET AIR NODE,MECHANICAL ROOM ZN PSZ_11
 Supply Air Path,10,MEETING ROOM ZN PSZ_8 MEETING ROOM ZN PSZ_8 DEMAND INLET NODE SUPPLY PATH,MEETING ROOM ZN PSZ_8
   #Components on Supply Air Path,1
   Supply Air Path Component,1,AIRLOOPHVAC:ZONESPLITTER,AIR LOOP HVAC ZONE SPLITTER 8,MEETING ROOM ZN PSZ_8
     #Outlet Nodes on Supply Air Path Component,1
     Supply Air Path Component Nodes,1,AIRLOOPHVAC:ZONESPLITTER,AIR LOOP HVAC ZONE SPLITTER 8,MEETING ROOM ZN PSZ_8 DEMAND INLET NODE,MEETING ROOM ZN PSZ_8 DIFFUSER INLET AIR NODE,MEETING ROOM ZN PSZ_8
! <#Nodes on Supply Air Path>,<Number of Nodes>
! <Supply Air Path Node>,<Node Type>,<Node Count>,<Node Name>,<AirLoopHVAC Name>
#Nodes on Supply Air Path,2
   Supply Air Path Node,Inlet Node,1,MEETING ROOM ZN PSZ_8 DEMAND INLET NODE,MEETING ROOM ZN PSZ_8
   Supply Air Path Node,Outlet Node,2,MEETING ROOM ZN PSZ_8 DIFFUSER INLET AIR NODE,MEETING ROOM ZN PSZ_8
 Supply Air Path,11,PRODUCE ZN PSZ_4 PRODUCE ZN PSZ_4 DEMAND INLET NODE SUPPLY PATH,PRODUCE ZN PSZ_4
   #Components on Supply Air Path,1
   Supply Air Path Component,1,AIRLOOPHVAC:ZONESPLITTER,AIR LOOP HVAC ZONE SPLITTER 4,PRODUCE ZN PSZ_4
     #Outlet Nodes on Supply Air Path Component,1
     Supply Air Path Component Nodes,1,AIRLOOPHVAC:ZONESPLITTER,AIR LOOP HVAC ZONE SPLITTER 4,PRODUCE ZN PSZ_4 DEMAND INLET NODE,PRODUCE ZN PSZ_4 DIFFUSER INLET AIR NODE,PRODUCE ZN PSZ_4
! <#Nodes on Supply Air Path>,<Number of Nodes>
! <Supply Air Path Node>,<Node Type>,<Node Count>,<Node Name>,<AirLoopHVAC Name>
#Nodes on Supply Air Path,2
   Supply Air Path Node,Inlet Node,1,PRODUCE ZN PSZ_4 DEMAND INLET NODE,PRODUCE ZN PSZ_4
   Supply Air Path Node,Outlet Node,2,PRODUCE ZN PSZ_4 DIFFUSER INLET AIR NODE,PRODUCE ZN PSZ_4
 Supply Air Path,12,RESTROOM ZN PSZ_10 RESTROOM ZN PSZ_10 DEMAND INLET NODE SUPPLY PATH,RESTROOM ZN PSZ_10
   #Components on Supply Air Path,1
   Supply Air Path Component,1,AIRLOOPHVAC:ZONESPLITTER,AIR LOOP HVAC ZONE SPLITTER 10,RESTROOM ZN PSZ_10
     #Outlet Nodes on Supply Air Path Component,1
     Supply Air Path Component Nodes,1,AIRLOOPHVAC:ZONESPLITTER,AIR LOOP HVAC ZONE SPLITTER 10,RESTROOM ZN PSZ_10 DEMAND INLET NODE,RESTROOM ZN PSZ_10 DIFFUSER INLET AIR NODE,RESTROOM ZN PSZ_10
! <#Nodes on Supply Air Path>,<Number of Nodes>
! <Supply Air Path Node>,<Node Type>,<Node Count>,<Node Name>,<AirLoopHVAC Name>
#Nodes on Supply Air Path,2
   Supply Air Path Node,Inlet Node,1,RESTROOM ZN PSZ_10 DEMAND INLET NODE,RESTROOM ZN PSZ_10
   Supply Air Path Node,Outlet Node,2,RESTROOM ZN PSZ_10 DIFFUSER INLET AIR NODE,RESTROOM ZN PSZ_10
 Supply Air Path,13,VESTIBULE ZN PSZ_13 VESTIBULE ZN PSZ_13 DEMAND INLET NODE SUPPLY PATH,VESTIBULE ZN PSZ_13
   #Components on Supply Air Path,1
   Supply Air Path Component,1,AIRLOOPHVAC:ZONESPLITTER,AIR LOOP HVAC ZONE SPLITTER 13,VESTIBULE ZN PSZ_13
     #Outlet Nodes on Supply Air Path Component,1
     Supply Air Path Component Nodes,1,AIRLOOPHVAC:ZONESPLITTER,AIR LOOP HVAC ZONE SPLITTER 13,VESTIBULE ZN PSZ_13 DEMAND INLET NODE,VESTIBULE ZN PSZ_13 DIFFUSER INLET AIR NODE,VESTIBULE ZN PSZ_13
! <#Nodes on Supply Air Path>,<Number of Nodes>
! <Supply Air Path Node>,<Node Type>,<Node Count>,<Node Name>,<AirLoopHVAC Name>
#Nodes on Supply Air Path,2
   Supply Air Path Node,Inlet Node,1,VESTIBULE ZN PSZ_13 DEMAND INLET NODE,VESTIBULE ZN PSZ_13
   Supply Air Path Node,Outlet Node,2,VESTIBULE ZN PSZ_13 DIFFUSER INLET AIR NODE,VESTIBULE ZN PSZ_13
 Supply Air Path,14,WEST PERIMETER SALES ZN PSZ_2 WEST PERIMETER SALES ZN PSZ_2 DEMAND INLET NODE SUPPLY PATH,WEST PERIMETER SALES ZN PSZ_2
   #Components on Supply Air Path,1
   Supply Air Path Component,1,AIRLOOPHVAC:ZONESPLITTER,AIR LOOP HVAC ZONE SPLITTER 2,WEST PERIMETER SALES ZN PSZ_2
     #Outlet Nodes on Supply Air Path Component,1
     Supply Air Path Component Nodes,1,AIRLOOPHVAC:ZONESPLITTER,AIR LOOP HVAC ZONE SPLITTER 2,WEST PERIMETER SALES ZN PSZ_2 DEMAND INLET NODE,WEST PERIMETER SALES ZN PSZ_2 DIFFUSER INLET AIR NODE,WEST PERIMETER SALES ZN PSZ_2
! <#Nodes on Supply Air Path>,<Number of Nodes>
! <Supply Air Path Node>,<Node Type>,<Node Count>,<Node Name>,<AirLoopHVAC Name>
#Nodes on Supply Air Path,2
   Supply Air Path Node,Inlet Node,1,WEST PERIMETER SALES ZN PSZ_2 DEMAND INLET NODE,WEST PERIMETER SALES ZN PSZ_2
   Supply Air Path Node,Outlet Node,2,WEST PERIMETER SALES ZN PSZ_2 DIFFUSER INLET AIR NODE,WEST PERIMETER SALES ZN PSZ_2
! ===============================================================
! <#Return Air Paths>,<Number of Return Air Paths>
 #Return Air Paths,14
! <Return Air Path>,<Return Air Path Count>,<Return Air Path Name>,<AirLoopHVAC Name>
! <#Components on Return Air Path>,<Number of Components>
! <Return Air Path Component>,<Component Count>,<Component Type>,<Component Name>,<AirLoopHVAC Name>
! <#Inlet Nodes on Return Air Path Component>,<Number of Nodes>
! <Return Air Path Component Nodes>,<Node Count>,<Component Type>,<Component Name>,<Inlet Node Name>,<Outlet Node Name>,<AirLoopHVAC Name>
 Return Air Path,1,ACTIVE STORAGE ZN PSZ_14 RETURN PATH,ACTIVE STORAGE ZN PSZ_14
   #Components on Return Air Path,1
   Return Air Path Component,1,AIRLOOPHVAC:ZONEMIXER,AIR LOOP HVAC ZONE MIXER 14,ACTIVE STORAGE ZN PSZ_14
     #Inlet Nodes on Return Air Path Component,1
     Return Air Path Component Nodes,1,AIRLOOPHVAC:ZONEMIXER,AIR LOOP HVAC ZONE MIXER 14,ACTIVE STORAGE ZN RETURN AIR NODE,ACTIVE STORAGE ZN PSZ_14 DEMAND OUTLET NODE,ACTIVE STORAGE ZN PSZ_14
! <#Nodes on Return Air Path>,<Number of Nodes>
! <Return Air Path Node>,<Node Type>,<Node Count>,<Node Name>,<AirLoopHVAC Name>
   #Nodes on Return Air Path,2
   Return Air Path Node,Outlet Node,1,ACTIVE STORAGE ZN PSZ_14 DEMAND OUTLET NODE,ACTIVE STORAGE ZN PSZ_14
   Return Air Path Node,Inlet Node,2,ACTIVE STORAGE ZN RETURN AIR NODE,ACTIVE STORAGE ZN PSZ_14
 Return Air Path,2,BAKERY ZN PSZ_6 RETURN PATH,BAKERY ZN PSZ_6
   #Components on Return Air Path,1
   Return Air Path Component,1,AIRLOOPHVAC:ZONEMIXER,AIR LOOP HVAC ZONE MIXER 6,BAKERY ZN PSZ_6
     #Inlet Nodes on Return Air Path Component,1
     Return Air Path Component Nodes,1,AIRLOOPHVAC:ZONEMIXER,AIR LOOP HVAC ZONE MIXER 6,BAKERY ZN RETURN AIR NODE,BAKERY ZN PSZ_6 DEMAND OUTLET NODE,BAKERY ZN PSZ_6
! <#Nodes on Return Air Path>,<Number of Nodes>
! <Return Air Path Node>,<Node Type>,<Node Count>,<Node Name>,<AirLoopHVAC Name>
   #Nodes on Return Air Path,2
   Return Air Path Node,Outlet Node,1,BAKERY ZN PSZ_6 DEMAND OUTLET NODE,BAKERY ZN PSZ_6
   Return Air Path Node,Inlet Node,2,BAKERY ZN RETURN AIR NODE,BAKERY ZN PSZ_6
 Return Air Path,3,CORRIDOR ZN PSZ_12 RETURN PATH,CORRIDOR ZN PSZ_12
   #Components on Return Air Path,1
   Return Air Path Component,1,AIRLOOPHVAC:ZONEMIXER,AIR LOOP HVAC ZONE MIXER 12,CORRIDOR ZN PSZ_12
     #Inlet Nodes on Return Air Path Component,1
     Return Air Path Component Nodes,1,AIRLOOPHVAC:ZONEMIXER,AIR LOOP HVAC ZONE MIXER 12,CORRIDOR ZN RETURN AIR NODE,CORRIDOR ZN PSZ_12 DEMAND OUTLET NODE,CORRIDOR ZN PSZ_12
! <#Nodes on Return Air Path>,<Number of Nodes>
! <Return Air Path Node>,<Node Type>,<Node Count>,<Node Name>,<AirLoopHVAC Name>
   #Nodes on Return Air Path,2
   Return Air Path Node,Outlet Node,1,CORRIDOR ZN PSZ_12 DEMAND OUTLET NODE,CORRIDOR ZN PSZ_12
   Return Air Path Node,Inlet Node,2,CORRIDOR ZN RETURN AIR NODE,CORRIDOR ZN PSZ_12
 Return Air Path,4,DELI ZN PSZ_5 RETURN PATH,DELI ZN PSZ_5
   #Components on Return Air Path,1
   Return Air Path Component,1,AIRLOOPHVAC:ZONEMIXER,AIR LOOP HVAC ZONE MIXER 5,DELI ZN PSZ_5
     #Inlet Nodes on Return Air Path Component,1
     Return Air Path Component Nodes,1,AIRLOOPHVAC:ZONEMIXER,AIR LOOP HVAC ZONE MIXER 5,DELI ZN RETURN AIR NODE,DELI ZN PSZ_5 DEMAND OUTLET NODE,DELI ZN PSZ_5
! <#Nodes on Return Air Path>,<Number of Nodes>
! <Return Air Path Node>,<Node Type>,<Node Count>,<Node Name>,<AirLoopHVAC Name>
   #Nodes on Return Air Path,2
   Return Air Path Node,Outlet Node,1,DELI ZN PSZ_5 DEMAND OUTLET NODE,DELI ZN PSZ_5
   Return Air Path Node,Inlet Node,2,DELI ZN RETURN AIR NODE,DELI ZN PSZ_5
 Return Air Path,5,DINING ROOM ZN PSZ_9 RETURN PATH,DINING ROOM ZN PSZ_9
   #Components on Return Air Path,1
   Return Air Path Component,1,AIRLOOPHVAC:ZONEMIXER,AIR LOOP HVAC ZONE MIXER 9,DINING ROOM ZN PSZ_9
     #Inlet Nodes on Return Air Path Component,1
     Return Air Path Component Nodes,1,AIRLOOPHVAC:ZONEMIXER,AIR LOOP HVAC ZONE MIXER 9,DINING ROOM ZN RETURN AIR NODE,DINING ROOM ZN PSZ_9 DEMAND OUTLET NODE,DINING ROOM ZN PSZ_9
! <#Nodes on Return Air Path>,<Number of Nodes>
! <Return Air Path Node>,<Node Type>,<Node Count>,<Node Name>,<AirLoopHVAC Name>
   #Nodes on Return Air Path,2
   Return Air Path Node,Outlet Node,1,DINING ROOM ZN PSZ_9 DEMAND OUTLET NODE,DINING ROOM ZN PSZ_9
   Return Air Path Node,Inlet Node,2,DINING ROOM ZN RETURN AIR NODE,DINING ROOM ZN PSZ_9
 Return Air Path,6,EAST PERIMETER SALES ZN PSZ_3 RETURN PATH,EAST PERIMETER SALES ZN PSZ_3
   #Components on Return Air Path,1
   Return Air Path Component,1,AIRLOOPHVAC:ZONEMIXER,AIR LOOP HVAC ZONE MIXER 3,EAST PERIMETER SALES ZN PSZ_3
     #Inlet Nodes on Return Air Path Component,1
     Return Air Path Component Nodes,1,AIRLOOPHVAC:ZONEMIXER,AIR LOOP HVAC ZONE MIXER 3,EAST PERIMETER SALES ZN RETURN AIR NODE,EAST PERIMETER SALES ZN PSZ_3 DEMAND OUTLET NODE,EAST PERIMETER SALES ZN PSZ_3
! <#Nodes on Return Air Path>,<Number of Nodes>
! <Return Air Path Node>,<Node Type>,<Node Count>,<Node Name>,<AirLoopHVAC Name>
   #Nodes on Return Air Path,2
   Return Air Path Node,Outlet Node,1,EAST PERIMETER SALES ZN PSZ_3 DEMAND OUTLET NODE,EAST PERIMETER SALES ZN PSZ_3
   Return Air Path Node,Inlet Node,2,EAST PERIMETER SALES ZN RETURN AIR NODE,EAST PERIMETER SALES ZN PSZ_3
 Return Air Path,7,ENCLOSED OFFICE ZN PSZ_7 RETURN PATH,ENCLOSED OFFICE ZN PSZ_7
   #Components on Return Air Path,1
   Return Air Path Component,1,AIRLOOPHVAC:ZONEMIXER,AIR LOOP HVAC ZONE MIXER 7,ENCLOSED OFFICE ZN PSZ_7
     #Inlet Nodes on Return Air Path Component,1
     Return Air Path Component Nodes,1,AIRLOOPHVAC:ZONEMIXER,AIR LOOP HVAC ZONE MIXER 7,ENCLOSED OFFICE ZN RETURN AIR NODE,ENCLOSED OFFICE ZN PSZ_7 DEMAND OUTLET NODE,ENCLOSED OFFICE ZN PSZ_7
! <#Nodes on Return Air Path>,<Number of Nodes>
! <Return Air Path Node>,<Node Type>,<Node Count>,<Node Name>,<AirLoopHVAC Name>
   #Nodes on Return Air Path,2
   Return Air Path Node,Outlet Node,1,ENCLOSED OFFICE ZN PSZ_7 DEMAND OUTLET NODE,ENCLOSED OFFICE ZN PSZ_7
   Return Air Path Node,Inlet Node,2,ENCLOSED OFFICE ZN RETURN AIR NODE,ENCLOSED OFFICE ZN PSZ_7
 Return Air Path,8,MAIN SALES ZN PSZ_1 RETURN PATH,MAIN SALES ZN PSZ_1
   #Components on Return Air Path,1
   Return Air Path Component,1,AIRLOOPHVAC:ZONEMIXER,AIR LOOP HVAC ZONE MIXER 1,MAIN SALES ZN PSZ_1
     #Inlet Nodes on Return Air Path Component,1
     Return Air Path Component Nodes,1,AIRLOOPHVAC:ZONEMIXER,AIR LOOP HVAC ZONE MIXER 1,MAIN SALES ZN RETURN AIR NODE,MAIN SALES ZN PSZ_1 DEMAND OUTLET NODE,MAIN SALES ZN PSZ_1
! <#Nodes on Return Air Path>,<Number of Nodes>
! <Return Air Path Node>,<Node Type>,<Node Count>,<Node Name>,<AirLoopHVAC Name>
   #Nodes on Return Air Path,2
   Return Air Path Node,Outlet Node,1,MAIN SALES ZN PSZ_1 DEMAND OUTLET NODE,MAIN SALES ZN PSZ_1
   Return Air Path Node,Inlet Node,2,MAIN SALES ZN RETURN AIR NODE,MAIN SALES ZN PSZ_1
 Return Air Path,9,MECHANICAL ROOM ZN PSZ_11 RETURN PATH,MECHANICAL ROOM ZN PSZ_11
   #Components on Return Air Path,1
   Return Air Path Component,1,AIRLOOPHVAC:ZONEMIXER,AIR LOOP HVAC ZONE MIXER 11,MECHANICAL ROOM ZN PSZ_11
     #Inlet Nodes on Return Air Path Component,1
     Return Air Path Component Nodes,1,AIRLOOPHVAC:ZONEMIXER,AIR LOOP HVAC ZONE MIXER 11,MECHANICAL ROOM ZN RETURN AIR NODE,MECHANICAL ROOM ZN PSZ_11 DEMAND OUTLET NODE,MECHANICAL ROOM ZN PSZ_11
! <#Nodes on Return Air Path>,<Number of Nodes>
! <Return Air Path Node>,<Node Type>,<Node Count>,<Node Name>,<AirLoopHVAC Name>
   #Nodes on Return Air Path,2
   Return Air Path Node,Outlet Node,1,MECHANICAL ROOM ZN PSZ_11 DEMAND OUTLET NODE,MECHANICAL ROOM ZN PSZ_11
   Return Air Path Node,Inlet Node,2,MECHANICAL ROOM ZN RETURN AIR NODE,MECHANICAL ROOM ZN PSZ_11
 Return Air Path,10,MEETING ROOM ZN PSZ_8 RETURN PATH,MEETING ROOM ZN PSZ_8
   #Components on Return Air Path,1
   Return Air Path Component,1,AIRLOOPHVAC:ZONEMIXER,AIR LOOP HVAC ZONE MIXER 8,MEETING ROOM ZN PSZ_8
     #Inlet Nodes on Return Air Path Component,1
     Return Air Path Component Nodes,1,AIRLOOPHVAC:ZONEMIXER,AIR LOOP HVAC ZONE MIXER 8,MEETING ROOM ZN RETURN AIR NODE,MEETING ROOM ZN PSZ_8 DEMAND OUTLET NODE,MEETING ROOM ZN PSZ_8
! <#Nodes on Return Air Path>,<Number of Nodes>
! <Return Air Path Node>,<Node Type>,<Node Count>,<Node Name>,<AirLoopHVAC Name>
   #Nodes on Return Air Path,2
   Return Air Path Node,Outlet Node,1,MEETING ROOM ZN PSZ_8 DEMAND OUTLET NODE,MEETING ROOM ZN PSZ_8
   Return Air Path Node,Inlet Node,2,MEETING ROOM ZN RETURN AIR NODE,MEETING ROOM ZN PSZ_8
 Return Air Path,11,PRODUCE ZN PSZ_4 RETURN PATH,PRODUCE ZN PSZ_4
   #Components on Return Air Path,1
   Return Air Path Component,1,AIRLOOPHVAC:ZONEMIXER,AIR LOOP HVAC ZONE MIXER 4,PRODUCE ZN PSZ_4
     #Inlet Nodes on Return Air Path Component,1
     Return Air Path Component Nodes,1,AIRLOOPHVAC:ZONEMIXER,AIR LOOP HVAC ZONE MIXER 4,PRODUCE ZN RETURN AIR NODE,PRODUCE ZN PSZ_4 DEMAND OUTLET NODE,PRODUCE ZN PSZ_4
! <#Nodes on Return Air Path>,<Number of Nodes>
! <Return Air Path Node>,<Node Type>,<Node Count>,<Node Name>,<AirLoopHVAC Name>
   #Nodes on Return Air Path,2
   Return Air Path Node,Outlet Node,1,PRODUCE ZN PSZ_4 DEMAND OUTLET NODE,PRODUCE ZN PSZ_4
   Return Air Path Node,Inlet Node,2,PRODUCE ZN RETURN AIR NODE,PRODUCE ZN PSZ_4
 Return Air Path,12,RESTROOM ZN PSZ_10 RETURN PATH,RESTROOM ZN PSZ_10
   #Components on Return Air Path,1
   Return Air Path Component,1,AIRLOOPHVAC:ZONEMIXER,AIR LOOP HVAC ZONE MIXER 10,RESTROOM ZN PSZ_10
     #Inlet Nodes on Return Air Path Component,1
     Return Air Path Component Nodes,1,AIRLOOPHVAC:ZONEMIXER,AIR LOOP HVAC ZONE MIXER 10,RESTROOM ZN RETURN AIR NODE,RESTROOM ZN PSZ_10 DEMAND OUTLET NODE,RESTROOM ZN PSZ_10
! <#Nodes on Return Air Path>,<Number of Nodes>
! <Return Air Path Node>,<Node Type>,<Node Count>,<Node Name>,<AirLoopHVAC Name>
   #Nodes on Return Air Path,2
   Return Air Path Node,Outlet Node,1,RESTROOM ZN PSZ_10 DEMAND OUTLET NODE,RESTROOM ZN PSZ_10
   Return Air Path Node,Inlet Node,2,RESTROOM ZN RETURN AIR NODE,RESTROOM ZN PSZ_10
 Return Air Path,13,VESTIBULE ZN PSZ_13 RETURN PATH,VESTIBULE ZN PSZ_13
   #Components on Return Air Path,1
   Return Air Path Component,1,AIRLOOPHVAC:ZONEMIXER,AIR LOOP HVAC ZONE MIXER 13,VESTIBULE ZN PSZ_13
     #Inlet Nodes on Return Air Path Component,1
     Return Air Path Component Nodes,1,AIRLOOPHVAC:ZONEMIXER,AIR LOOP HVAC ZONE MIXER 13,VESTIBULE ZN RETURN AIR NODE,VESTIBULE ZN PSZ_13 DEMAND OUTLET NODE,VESTIBULE ZN PSZ_13
! <#Nodes on Return Air Path>,<Number of Nodes>
! <Return Air Path Node>,<Node Type>,<Node Count>,<Node Name>,<AirLoopHVAC Name>
   #Nodes on Return Air Path,2
   Return Air Path Node,Outlet Node,1,VESTIBULE ZN PSZ_13 DEMAND OUTLET NODE,VESTIBULE ZN PSZ_13
   Return Air Path Node,Inlet Node,2,VESTIBULE ZN RETURN AIR NODE,VESTIBULE ZN PSZ_13
 Return Air Path,14,WEST PERIMETER SALES ZN PSZ_2 RETURN PATH,WEST PERIMETER SALES ZN PSZ_2
   #Components on Return Air Path,1
   Return Air Path Component,1,AIRLOOPHVAC:ZONEMIXER,AIR LOOP HVAC ZONE MIXER 2,WEST PERIMETER SALES ZN PSZ_2
     #Inlet Nodes on Return Air Path Component,1
     Return Air Path Component Nodes,1,AIRLOOPHVAC:ZONEMIXER,AIR LOOP HVAC ZONE MIXER 2,WEST PERIMETER SALES ZN RETURN AIR NODE,WEST PERIMETER SALES ZN PSZ_2 DEMAND OUTLET NODE,WEST PERIMETER SALES ZN PSZ_2
! <#Nodes on Return Air Path>,<Number of Nodes>
! <Return Air Path Node>,<Node Type>,<Node Count>,<Node Name>,<AirLoopHVAC Name>
   #Nodes on Return Air Path,2
   Return Air Path Node,Outlet Node,1,WEST PERIMETER SALES ZN PSZ_2 DEMAND OUTLET NODE,WEST PERIMETER SALES ZN PSZ_2
   Return Air Path Node,Inlet Node,2,WEST PERIMETER SALES ZN RETURN AIR NODE,WEST PERIMETER SALES ZN PSZ_2
! ===============================================================
! #Outdoor Air Nodes,<Number of Outdoor Air Nodes>
 #Outdoor Air Nodes,15
! <Outdoor Air Node>,<NodeNumber>,<Node Name>
 Outdoor Air Node,133,ACTIVE STORAGE ZN PSZ_14 OUTDOOR AIR NODE
 Outdoor Air Node,134,BAKERY ZN PSZ_6 OUTDOOR AIR NODE
 Outdoor Air Node,135,CORRIDOR ZN PSZ_12 OUTDOOR AIR NODE
 Outdoor Air Node,136,DELI ZN PSZ_5 OUTDOOR AIR NODE
 Outdoor Air Node,137,DINING ROOM ZN PSZ_9 OUTDOOR AIR NODE
 Outdoor Air Node,138,EAST PERIMETER SALES ZN PSZ_3 OUTDOOR AIR NODE
 Outdoor Air Node,139,ENCLOSED OFFICE ZN PSZ_7 OUTDOOR AIR NODE
 Outdoor Air Node,140,MAIN SALES ZN PSZ_1 OUTDOOR AIR NODE
 Outdoor Air Node,141,MECHANICAL ROOM ZN PSZ_11 OUTDOOR AIR NODE
 Outdoor Air Node,142,MEETING ROOM ZN PSZ_8 OUTDOOR AIR NODE
 Outdoor Air Node,143,PRODUCE ZN PSZ_4 OUTDOOR AIR NODE
 Outdoor Air Node,144,RESTROOM ZN PSZ_10 OUTDOOR AIR NODE
 Outdoor Air Node,145,VESTIBULE ZN PSZ_13 OUTDOOR AIR NODE
 Outdoor Air Node,146,WEST PERIMETER SALES ZN PSZ_2 OUTDOOR AIR NODE
 Outdoor Air Node,147,MODEL OUTDOOR AIR NODE
! ===============================================================
! <#Component Sets>,<Number of Component Sets>
 #Component Sets,121
! <Component Set>,<Component Set Count>,<Parent Object Type>,<Parent Object Name>,<Component Type>,<Component Name>,<Inlet Node ID>,<Outlet Node ID>,<Description>
 Component Set,1,BRANCH,ACTIVE STORAGE ZN PSZ_14 MAIN BRANCH,AIRLOOPHVAC:OUTDOORAIRSYSTEM,ACTIVE STORAGE ZN PSZ_14 OA SYSTEM,ACTIVE STORAGE ZN PSZ_14 SUPPLY INLET NODE,ACTIVE STORAGE ZN PSZ_14 MIXED AIR NODE,Air Nodes
 Component Set,2,BRANCH,ACTIVE STORAGE ZN PSZ_14 MAIN BRANCH,AIRLOOPHVAC:UNITARYSYSTEM,ACTIVE STORAGE ZN PSZ_14 UNITARY AC,ACTIVE STORAGE ZN PSZ_14 MIXED AIR NODE,ACTIVE STORAGE ZN PSZ_14 SUPPLY OUTLET NODE,Air Nodes
 Component Set,3,BRANCH,BAKERY ZN PSZ_6 MAIN BRANCH,AIRLOOPHVAC:OUTDOORAIRSYSTEM,BAKERY ZN PSZ_6 OA SYSTEM,BAKERY ZN PSZ_6 SUPPLY INLET NODE,BAKERY ZN PSZ_6 MIXED AIR NODE,Air Nodes
 Component Set,4,BRANCH,BAKERY ZN PSZ_6 MAIN BRANCH,AIRLOOPHVAC:UNITARYSYSTEM,BAKERY ZN PSZ_6 UNITARY AC,BAKERY ZN PSZ_6 MIXED AIR NODE,BAKERY ZN PSZ_6 SUPPLY OUTLET NODE,Air Nodes
 Component Set,5,BRANCH,CORRIDOR ZN PSZ_12 MAIN BRANCH,AIRLOOPHVAC:OUTDOORAIRSYSTEM,CORRIDOR ZN PSZ_12 OA SYSTEM,CORRIDOR ZN PSZ_12 SUPPLY INLET NODE,CORRIDOR ZN PSZ_12 MIXED AIR NODE,Air Nodes
 Component Set,6,BRANCH,CORRIDOR ZN PSZ_12 MAIN BRANCH,AIRLOOPHVAC:UNITARYSYSTEM,CORRIDOR ZN PSZ_12 UNITARY AC,CORRIDOR ZN PSZ_12 MIXED AIR NODE,CORRIDOR ZN PSZ_12 SUPPLY OUTLET NODE,Air Nodes
 Component Set,7,BRANCH,DELI ZN PSZ_5 MAIN BRANCH,AIRLOOPHVAC:OUTDOORAIRSYSTEM,DELI ZN PSZ_5 OA SYSTEM,DELI ZN PSZ_5 SUPPLY INLET NODE,DELI ZN PSZ_5 MIXED AIR NODE,Air Nodes
 Component Set,8,BRANCH,DELI ZN PSZ_5 MAIN BRANCH,AIRLOOPHVAC:UNITARYSYSTEM,DELI ZN PSZ_5 UNITARY AC,DELI ZN PSZ_5 MIXED AIR NODE,DELI ZN PSZ_5 SUPPLY OUTLET NODE,Air Nodes
 Component Set,9,BRANCH,DINING ROOM ZN PSZ_9 MAIN BRANCH,AIRLOOPHVAC:OUTDOORAIRSYSTEM,DINING ROOM ZN PSZ_9 OA SYSTEM,DINING ROOM ZN PSZ_9 SUPPLY INLET NODE,DINING ROOM ZN PSZ_9 MIXED AIR NODE,Air Nodes
 Component Set,10,BRANCH,DINING ROOM ZN PSZ_9 MAIN BRANCH,AIRLOOPHVAC:UNITARYSYSTEM,DINING ROOM ZN PSZ_9 UNITARY AC,DINING ROOM ZN PSZ_9 MIXED AIR NODE,DINING ROOM ZN PSZ_9 SUPPLY OUTLET NODE,Air Nodes
 Component Set,11,BRANCH,EAST PERIMETER SALES ZN PSZ_3 MAIN BRANCH,AIRLOOPHVAC:OUTDOORAIRSYSTEM,EAST PERIMETER SALES ZN PSZ_3 OA SYSTEM,EAST PERIMETER SALES ZN PSZ_3 SUPPLY INLET NODE,EAST PERIMETER SALES ZN PSZ_3 MIXED AIR NODE,Air Nodes
 Component Set,12,BRANCH,EAST PERIMETER SALES ZN PSZ_3 MAIN BRANCH,AIRLOOPHVAC:UNITARYSYSTEM,EAST PERIMETER SALES ZN PSZ_3 UNITARY AC,EAST PERIMETER SALES ZN PSZ_3 MIXED AIR NODE,EAST PERIMETER SALES ZN PSZ_3 SUPPLY OUTLET NODE,Air Nodes
 Component Set,13,BRANCH,ENCLOSED OFFICE ZN PSZ_7 MAIN BRANCH,AIRLOOPHVAC:OUTDOORAIRSYSTEM,ENCLOSED OFFICE ZN PSZ_7 OA SYSTEM,ENCLOSED OFFICE ZN PSZ_7 SUPPLY INLET NODE,ENCLOSED OFFICE ZN PSZ_7 MIXED AIR NODE,Air Nodes
 Component Set,14,BRANCH,ENCLOSED OFFICE ZN PSZ_7 MAIN BRANCH,AIRLOOPHVAC:UNITARYSYSTEM,ENCLOSED OFFICE ZN PSZ_7 UNITARY AC,ENCLOSED OFFICE ZN PSZ_7 MIXED AIR NODE,ENCLOSED OFFICE ZN PSZ_7 SUPPLY OUTLET NODE,Air Nodes
 Component Set,15,BRANCH,MAIN SALES ZN PSZ_1 MAIN BRANCH,AIRLOOPHVAC:OUTDOORAIRSYSTEM,MAIN SALES ZN PSZ_1 OA SYSTEM,MAIN SALES ZN PSZ_1 SUPPLY INLET NODE,MAIN SALES ZN PSZ_1 MIXED AIR NODE,Air Nodes
 Component Set,16,BRANCH,MAIN SALES ZN PSZ_1 MAIN BRANCH,AIRLOOPHVAC:UNITARYSYSTEM,MAIN SALES ZN PSZ_1 UNITARY AC,MAIN SALES ZN PSZ_1 MIXED AIR NODE,MAIN SALES ZN PSZ_1 SUPPLY OUTLET NODE,Air Nodes
 Component Set,17,BRANCH,MECHANICAL ROOM ZN PSZ_11 MAIN BRANCH,AIRLOOPHVAC:OUTDOORAIRSYSTEM,MECHANICAL ROOM ZN PSZ_11 OA SYSTEM,MECHANICAL ROOM ZN PSZ_11 SUPPLY INLET NODE,MECHANICAL ROOM ZN PSZ_11 MIXED AIR NODE,Air Nodes
 Component Set,18,BRANCH,MECHANICAL ROOM ZN PSZ_11 MAIN BRANCH,AIRLOOPHVAC:UNITARYSYSTEM,MECHANICAL ROOM ZN PSZ_11 UNITARY AC,MECHANICAL ROOM ZN PSZ_11 MIXED AIR NODE,MECHANICAL ROOM ZN PSZ_11 SUPPLY OUTLET NODE,Air Nodes
 Component Set,19,BRANCH,MEETING ROOM ZN PSZ_8 MAIN BRANCH,AIRLOOPHVAC:OUTDOORAIRSYSTEM,MEETING ROOM ZN PSZ_8 OA SYSTEM,MEETING ROOM ZN PSZ_8 SUPPLY INLET NODE,MEETING ROOM ZN PSZ_8 MIXED AIR NODE,Air Nodes
 Component Set,20,BRANCH,MEETING ROOM ZN PSZ_8 MAIN BRANCH,AIRLOOPHVAC:UNITARYSYSTEM,MEETING ROOM ZN PSZ_8 UNITARY AC,MEETING ROOM ZN PSZ_8 MIXED AIR NODE,MEETING ROOM ZN PSZ_8 SUPPLY OUTLET NODE,Air Nodes
 Component Set,21,BRANCH,PRODUCE ZN PSZ_4 MAIN BRANCH,AIRLOOPHVAC:OUTDOORAIRSYSTEM,PRODUCE ZN PSZ_4 OA SYSTEM,PRODUCE ZN PSZ_4 SUPPLY INLET NODE,PRODUCE ZN PSZ_4 MIXED AIR NODE,Air Nodes
 Component Set,22,BRANCH,PRODUCE ZN PSZ_4 MAIN BRANCH,AIRLOOPHVAC:UNITARYSYSTEM,PRODUCE ZN PSZ_4 UNITARY AC,PRODUCE ZN PSZ_4 MIXED AIR NODE,PRODUCE ZN PSZ_4 SUPPLY OUTLET NODE,Air Nodes
 Component Set,23,BRANCH,RESTROOM ZN PSZ_10 MAIN BRANCH,AIRLOOPHVAC:OUTDOORAIRSYSTEM,RESTROOM ZN PSZ_10 OA SYSTEM,RESTROOM ZN PSZ_10 SUPPLY INLET NODE,RESTROOM ZN PSZ_10 MIXED AIR NODE,Air Nodes
 Component Set,24,BRANCH,RESTROOM ZN PSZ_10 MAIN BRANCH,AIRLOOPHVAC:UNITARYSYSTEM,RESTROOM ZN PSZ_10 UNITARY AC,RESTROOM ZN PSZ_10 MIXED AIR NODE,RESTROOM ZN PSZ_10 SUPPLY OUTLET NODE,Air Nodes
 Component Set,25,BRANCH,VESTIBULE ZN PSZ_13 MAIN BRANCH,AIRLOOPHVAC:OUTDOORAIRSYSTEM,VESTIBULE ZN PSZ_13 OA SYSTEM,VESTIBULE ZN PSZ_13 SUPPLY INLET NODE,VESTIBULE ZN PSZ_13 MIXED AIR NODE,Air Nodes
 Component Set,26,BRANCH,VESTIBULE ZN PSZ_13 MAIN BRANCH,AIRLOOPHVAC:UNITARYSYSTEM,VESTIBULE ZN PSZ_13 UNITARY AC,VESTIBULE ZN PSZ_13 MIXED AIR NODE,VESTIBULE ZN PSZ_13 SUPPLY OUTLET NODE,Air Nodes
 Component Set,27,BRANCH,WEST PERIMETER SALES ZN PSZ_2 MAIN BRANCH,AIRLOOPHVAC:OUTDOORAIRSYSTEM,WEST PERIMETER SALES ZN PSZ_2 OA SYSTEM,WEST PERIMETER SALES ZN PSZ_2 SUPPLY INLET NODE,WEST PERIMETER SALES ZN PSZ_2 MIXED AIR NODE,Air Nodes
 Component Set,28,BRANCH,WEST PERIMETER SALES ZN PSZ_2 MAIN BRANCH,AIRLOOPHVAC:UNITARYSYSTEM,WEST PERIMETER SALES ZN PSZ_2 UNITARY AC,WEST PERIMETER SALES ZN PSZ_2 MIXED AIR NODE,WEST PERIMETER SALES ZN PSZ_2 SUPPLY OUTLET NODE,Air Nodes
 Component Set,29,BRANCH,MAIN SERVICE WATER LOOP SUPPLY INLET BRANCH,PUMP:VARIABLESPEED,MAIN SERVICE WATER LOOP WATER MAINS PRESSURE DRIVEN,MAIN SERVICE WATER LOOP SUPPLY INLET NODE,MAIN SERVICE WATER LOOP WATER MAINS PRESSURE DRIVEN OUTLET WATER NODE,Water Nodes
 Component Set,30,BRANCH,MAIN SERVICE WATER LOOP SUPPLY BRANCH 1,WATERHEATER:MIXED,105GAL NATURAL GAS WATER HEATER - 2883KBTU/HR 0.801 THERM EFF,105GAL NATURAL GAS WATER HEATER - 2883KBTU/HR 0.801 THERM EFF SUPPLY INLET WATER NODE,105GAL NATURAL GAS WATER HEATER - 2883KBTU/HR 0.801 THERM EFF SUPPLY OUTLET WATER NODE,Use Side Water Nodes
 Component Set,31,BRANCH,MAIN SERVICE WATER LOOP SUPPLY BRANCH 2,PIPE:ADIABATIC,PIPE ADIABATIC 1,PIPE ADIABATIC 1 INLET WATER NODE,PIPE ADIABATIC 1 OUTLET WATER NODE,Pipe Nodes
 Component Set,32,BRANCH,MAIN SERVICE WATER LOOP SUPPLY OUTLET BRANCH,PIPE:ADIABATIC,PIPE ADIABATIC 3,PIPE ADIABATIC 3 INLET WATER NODE,MAIN SERVICE WATER LOOP SUPPLY OUTLET NODE,Pipe Nodes
 Component Set,33,BRANCH,MAIN SERVICE WATER LOOP DEMAND INLET BRANCH,PIPE:ADIABATIC,MAIN SERVICE WATER LOOP DEMAND INLET PIPE,MAIN SERVICE WATER LOOP DEMAND INLET NODE,MAIN SERVICE WATER LOOP DEMAND INLET PIPE NODE,Pipe Nodes
 Component Set,34,BRANCH,MAIN SERVICE WATER LOOP DEMAND BRANCH 1,PIPE:ADIABATIC,PIPE ADIABATIC 2,PIPE ADIABATIC 2 INLET WATER NODE,PIPE ADIABATIC 2 OUTLET WATER NODE,Pipe Nodes
 Component Set,35,BRANCH,MAIN SERVICE WATER LOOP DEMAND BRANCH 2,WATERUSE:CONNECTIONS,MAIN WUC 0.17GPM AT 140F,MAIN WUC 0.17GPM AT 140F INLET WATER NODE,MAIN WUC 0.17GPM AT 140F OUTLET WATER NODE,DHW Nodes
 Component Set,36,BRANCH,MAIN SERVICE WATER LOOP DEMAND BYPASS BRANCH,PIPE:ADIABATIC,MAIN SERVICE WATER LOOP DEMAND BYPASS PIPE,MAIN SERVICE WATER LOOP DEMAND BYPASS PIPE INLET NODE,MAIN SERVICE WATER LOOP DEMAND BYPASS PIPE OUTLET NODE,Pipe Nodes
 Component Set,37,BRANCH,MAIN SERVICE WATER LOOP DEMAND OUTLET BRANCH,PIPE:ADIABATIC,PIPE ADIABATIC 4,PIPE ADIABATIC 4 INLET WATER NODE,MAIN SERVICE WATER LOOP DEMAND OUTLET NODE,Pipe Nodes
 Component Set,38,ZONEHVAC:AIRDISTRIBUTIONUNIT,ADU ACTIVE STORAGE ZN PSZ_14 DIFFUSER,AIRTERMINAL:SINGLEDUCT:CONSTANTVOLUME:NOREHEAT,ACTIVE STORAGE ZN PSZ_14 DIFFUSER,ACTIVE STORAGE ZN PSZ_14 DIFFUSER INLET AIR NODE,ACTIVE STORAGE ZN PSZ_14 DIFFUSER OUTLET AIR NODE,Air Nodes
 Component Set,39,ZONEHVAC:AIRDISTRIBUTIONUNIT,ADU BAKERY ZN PSZ_6 DIFFUSER,AIRTERMINAL:SINGLEDUCT:CONSTANTVOLUME:NOREHEAT,BAKERY ZN PSZ_6 DIFFUSER,BAKERY ZN PSZ_6 DIFFUSER INLET AIR NODE,BAKERY ZN PSZ_6 DIFFUSER OUTLET AIR NODE,Air Nodes
 Component Set,40,ZONEHVAC:AIRDISTRIBUTIONUNIT,ADU CORRIDOR ZN PSZ_12 DIFFUSER,AIRTERMINAL:SINGLEDUCT:CONSTANTVOLUME:NOREHEAT,CORRIDOR ZN PSZ_12 DIFFUSER,CORRIDOR ZN PSZ_12 DIFFUSER INLET AIR NODE,CORRIDOR ZN PSZ_12 DIFFUSER OUTLET AIR NODE,Air Nodes
 Component Set,41,ZONEHVAC:AIRDISTRIBUTIONUNIT,ADU DELI ZN PSZ_5 DIFFUSER,AIRTERMINAL:SINGLEDUCT:CONSTANTVOLUME:NOREHEAT,DELI ZN PSZ_5 DIFFUSER,DELI ZN PSZ_5 DIFFUSER INLET AIR NODE,DELI ZN PSZ_5 DIFFUSER OUTLET AIR NODE,Air Nodes
 Component Set,42,ZONEHVAC:AIRDISTRIBUTIONUNIT,ADU DINING ROOM ZN PSZ_9 DIFFUSER,AIRTERMINAL:SINGLEDUCT:CONSTANTVOLUME:NOREHEAT,DINING ROOM ZN PSZ_9 DIFFUSER,DINING ROOM ZN PSZ_9 DIFFUSER INLET AIR NODE,DINING ROOM ZN PSZ_9 DIFFUSER OUTLET AIR NODE,Air Nodes
 Component Set,43,ZONEHVAC:AIRDISTRIBUTIONUNIT,ADU EAST PERIMETER SALES ZN PSZ_3 DIFFUSER,AIRTERMINAL:SINGLEDUCT:CONSTANTVOLUME:NOREHEAT,EAST PERIMETER SALES ZN PSZ_3 DIFFUSER,EAST PERIMETER SALES ZN PSZ_3 DIFFUSER INLET AIR NODE,EAST PERIMETER SALES ZN PSZ_3 DIFFUSER OUTLET AIR NODE,Air Nodes
 Component Set,44,ZONEHVAC:AIRDISTRIBUTIONUNIT,ADU ENCLOSED OFFICE ZN PSZ_7 DIFFUSER,AIRTERMINAL:SINGLEDUCT:CONSTANTVOLUME:NOREHEAT,ENCLOSED OFFICE ZN PSZ_7 DIFFUSER,ENCLOSED OFFICE ZN PSZ_7 DIFFUSER INLET AIR NODE,ENCLOSED OFFICE ZN PSZ_7 DIFFUSER OUTLET AIR NODE,Air Nodes
 Component Set,45,ZONEHVAC:AIRDISTRIBUTIONUNIT,ADU MAIN SALES ZN PSZ_1 DIFFUSER,AIRTERMINAL:SINGLEDUCT:CONSTANTVOLUME:NOREHEAT,MAIN SALES ZN PSZ_1 DIFFUSER,MAIN SALES ZN PSZ_1 DIFFUSER INLET AIR NODE,MAIN SALES ZN PSZ_1 DIFFUSER OUTLET AIR NODE,Air Nodes
 Component Set,46,ZONEHVAC:AIRDISTRIBUTIONUNIT,ADU MECHANICAL ROOM ZN PSZ_11 DIFFUSER,AIRTERMINAL:SINGLEDUCT:CONSTANTVOLUME:NOREHEAT,MECHANICAL ROOM ZN PSZ_11 DIFFUSER,MECHANICAL ROOM ZN PSZ_11 DIFFUSER INLET AIR NODE,MECHANICAL ROOM ZN PSZ_11 DIFFUSER OUTLET AIR NODE,Air Nodes
 Component Set,47,ZONEHVAC:AIRDISTRIBUTIONUNIT,ADU MEETING ROOM ZN PSZ_8 DIFFUSER,AIRTERMINAL:SINGLEDUCT:CONSTANTVOLUME:NOREHEAT,MEETING ROOM ZN PSZ_8 DIFFUSER,MEETING ROOM ZN PSZ_8 DIFFUSER INLET AIR NODE,MEETING ROOM ZN PSZ_8 DIFFUSER OUTLET AIR NODE,Air Nodes
 Component Set,48,ZONEHVAC:AIRDISTRIBUTIONUNIT,ADU PRODUCE ZN PSZ_4 DIFFUSER,AIRTERMINAL:SINGLEDUCT:CONSTANTVOLUME:NOREHEAT,PRODUCE ZN PSZ_4 DIFFUSER,PRODUCE ZN PSZ_4 DIFFUSER INLET AIR NODE,PRODUCE ZN PSZ_4 DIFFUSER OUTLET AIR NODE,Air Nodes
 Component Set,49,ZONEHVAC:AIRDISTRIBUTIONUNIT,ADU RESTROOM ZN PSZ_10 DIFFUSER,AIRTERMINAL:SINGLEDUCT:CONSTANTVOLUME:NOREHEAT,RESTROOM ZN PSZ_10 DIFFUSER,RESTROOM ZN PSZ_10 DIFFUSER INLET AIR NODE,RESTROOM ZN PSZ_10 DIFFUSER OUTLET AIR NODE,Air Nodes
 Component Set,50,ZONEHVAC:AIRDISTRIBUTIONUNIT,ADU VESTIBULE ZN PSZ_13 DIFFUSER,AIRTERMINAL:SINGLEDUCT:CONSTANTVOLUME:NOREHEAT,VESTIBULE ZN PSZ_13 DIFFUSER,VESTIBULE ZN PSZ_13 DIFFUSER INLET AIR NODE,VESTIBULE ZN PSZ_13 DIFFUSER OUTLET AIR NODE,Air Nodes
 Component Set,51,ZONEHVAC:AIRDISTRIBUTIONUNIT,ADU WEST PERIMETER SALES ZN PSZ_2 DIFFUSER,AIRTERMINAL:SINGLEDUCT:CONSTANTVOLUME:NOREHEAT,WEST PERIMETER SALES ZN PSZ_2 DIFFUSER,WEST PERIMETER SALES ZN PSZ_2 DIFFUSER INLET AIR NODE,WEST PERIMETER SALES ZN PSZ_2 DIFFUSER OUTLET AIR NODE,Air Nodes
 Component Set,52,AIRLOOPHVAC:UNITARYSYSTEM,ACTIVE STORAGE ZN PSZ_14 UNITARY AC,FAN:ONOFF,ACTIVE STORAGE ZN PSZ_14 FAN,ACTIVE STORAGE ZN PSZ_14 UNITARY AC HEATING COIL - FAN NODE,ACTIVE STORAGE ZN PSZ_14 UNITARY AC FAN - SUPPLEMENTAL COIL NODE,Air Nodes
 Component Set,53,AIRLOOPHVAC:UNITARYSYSTEM,BAKERY ZN PSZ_6 UNITARY AC,FAN:ONOFF,BAKERY ZN PSZ_6 FAN,BAKERY ZN PSZ_6 UNITARY AC HEATING COIL - FAN NODE,BAKERY ZN PSZ_6 UNITARY AC FAN - SUPPLEMENTAL COIL NODE,Air Nodes
 Component Set,54,AIRLOOPHVAC:UNITARYSYSTEM,CORRIDOR ZN PSZ_12 UNITARY AC,FAN:ONOFF,CORRIDOR ZN PSZ_12 FAN,CORRIDOR ZN PSZ_12 UNITARY AC HEATING COIL - FAN NODE,CORRIDOR ZN PSZ_12 UNITARY AC FAN - SUPPLEMENTAL COIL NODE,Air Nodes
 Component Set,55,AIRLOOPHVAC:UNITARYSYSTEM,DELI ZN PSZ_5 UNITARY AC,FAN:ONOFF,DELI ZN PSZ_5 FAN,DELI ZN PSZ_5 UNITARY AC HEATING COIL - FAN NODE,DELI ZN PSZ_5 UNITARY AC FAN - SUPPLEMENTAL COIL NODE,Air Nodes
 Component Set,56,AIRLOOPHVAC:UNITARYSYSTEM,DINING ROOM ZN PSZ_9 UNITARY AC,FAN:ONOFF,DINING ROOM ZN PSZ_9 FAN,DINING ROOM ZN PSZ_9 UNITARY AC HEATING COIL - FAN NODE,DINING ROOM ZN PSZ_9 UNITARY AC FAN - SUPPLEMENTAL COIL NODE,Air Nodes
 Component Set,57,AIRLOOPHVAC:UNITARYSYSTEM,EAST PERIMETER SALES ZN PSZ_3 UNITARY AC,FAN:ONOFF,EAST PERIMETER SALES ZN PSZ_3 FAN,EAST PERIMETER SALES ZN PSZ_3 UNITARY AC HEATING COIL - FAN NODE,EAST PERIMETER SALES ZN PSZ_3 UNITARY AC FAN - SUPPLEMENTAL COIL NODE,Air Nodes
 Component Set,58,AIRLOOPHVAC:UNITARYSYSTEM,ENCLOSED OFFICE ZN PSZ_7 UNITARY AC,FAN:ONOFF,ENCLOSED OFFICE ZN PSZ_7 FAN,ENCLOSED OFFICE ZN PSZ_7 UNITARY AC HEATING COIL - FAN NODE,ENCLOSED OFFICE ZN PSZ_7 UNITARY AC FAN - SUPPLEMENTAL COIL NODE,Air Nodes
 Component Set,59,AIRLOOPHVAC:UNITARYSYSTEM,MAIN SALES ZN PSZ_1 UNITARY AC,FAN:ONOFF,MAIN SALES ZN PSZ_1 FAN,MAIN SALES ZN PSZ_1 UNITARY AC HEATING COIL - FAN NODE,MAIN SALES ZN PSZ_1 UNITARY AC FAN - SUPPLEMENTAL COIL NODE,Air Nodes
 Component Set,60,AIRLOOPHVAC:UNITARYSYSTEM,MECHANICAL ROOM ZN PSZ_11 UNITARY AC,FAN:ONOFF,MECHANICAL ROOM ZN PSZ_11 FAN,MECHANICAL ROOM ZN PSZ_11 UNITARY AC HEATING COIL - FAN NODE,MECHANICAL ROOM ZN PSZ_11 UNITARY AC FAN - SUPPLEMENTAL COIL NODE,Air Nodes
 Component Set,61,AIRLOOPHVAC:UNITARYSYSTEM,MEETING ROOM ZN PSZ_8 UNITARY AC,FAN:ONOFF,MEETING ROOM ZN PSZ_8 FAN,MEETING ROOM ZN PSZ_8 UNITARY AC HEATING COIL - FAN NODE,MEETING ROOM ZN PSZ_8 UNITARY AC FAN - SUPPLEMENTAL COIL NODE,Air Nodes
 Component Set,62,AIRLOOPHVAC:UNITARYSYSTEM,PRODUCE ZN PSZ_4 UNITARY AC,FAN:ONOFF,PRODUCE ZN PSZ_4 FAN,PRODUCE ZN PSZ_4 UNITARY AC HEATING COIL - FAN NODE,PRODUCE ZN PSZ_4 UNITARY AC FAN - SUPPLEMENTAL COIL NODE,Air Nodes
 Component Set,63,AIRLOOPHVAC:UNITARYSYSTEM,RESTROOM ZN PSZ_10 UNITARY AC,FAN:ONOFF,RESTROOM ZN PSZ_10 FAN,RESTROOM ZN PSZ_10 UNITARY AC HEATING COIL - FAN NODE,RESTROOM ZN PSZ_10 UNITARY AC FAN - SUPPLEMENTAL COIL NODE,Air Nodes
 Component Set,64,AIRLOOPHVAC:UNITARYSYSTEM,VESTIBULE ZN PSZ_13 UNITARY AC,FAN:ONOFF,VESTIBULE ZN PSZ_13 FAN,VESTIBULE ZN PSZ_13 UNITARY AC HEATING COIL - FAN NODE,VESTIBULE ZN PSZ_13 UNITARY AC FAN - SUPPLEMENTAL COIL NODE,Air Nodes
 Component Set,65,AIRLOOPHVAC:UNITARYSYSTEM,WEST PERIMETER SALES ZN PSZ_2 UNITARY AC,FAN:ONOFF,WEST PERIMETER SALES ZN PSZ_2 FAN,WEST PERIMETER SALES ZN PSZ_2 UNITARY AC HEATING COIL - FAN NODE,WEST PERIMETER SALES ZN PSZ_2 UNITARY AC FAN - SUPPLEMENTAL COIL NODE,Air Nodes
 Component Set,66,AIRLOOPHVAC:OUTDOORAIRSYSTEM,ACTIVE STORAGE ZN PSZ_14 OA SYSTEM,OUTDOORAIR:MIXER,ACTIVE STORAGE ZN PSZ_14 OA SYSTEM OUTDOOR AIR MIXER,ACTIVE STORAGE ZN PSZ_14 OUTDOOR AIR NODE,ACTIVE STORAGE ZN PSZ_14 MIXED AIR NODE,Air Nodes
 Component Set,67,AIRLOOPHVAC:OUTDOORAIRSYSTEM,BAKERY ZN PSZ_6 OA SYSTEM,OUTDOORAIR:MIXER,BAKERY ZN PSZ_6 OA SYSTEM OUTDOOR AIR MIXER,BAKERY ZN PSZ_6 OUTDOOR AIR NODE,BAKERY ZN PSZ_6 MIXED AIR NODE,Air Nodes
 Component Set,68,AIRLOOPHVAC:OUTDOORAIRSYSTEM,CORRIDOR ZN PSZ_12 OA SYSTEM,OUTDOORAIR:MIXER,CORRIDOR ZN PSZ_12 OA SYSTEM OUTDOOR AIR MIXER,CORRIDOR ZN PSZ_12 OUTDOOR AIR NODE,CORRIDOR ZN PSZ_12 MIXED AIR NODE,Air Nodes
 Component Set,69,AIRLOOPHVAC:OUTDOORAIRSYSTEM,DELI ZN PSZ_5 OA SYSTEM,OUTDOORAIR:MIXER,DELI ZN PSZ_5 OA SYSTEM OUTDOOR AIR MIXER,DELI ZN PSZ_5 OUTDOOR AIR NODE,DELI ZN PSZ_5 MIXED AIR NODE,Air Nodes
 Component Set,70,AIRLOOPHVAC:OUTDOORAIRSYSTEM,DINING ROOM ZN PSZ_9 OA SYSTEM,OUTDOORAIR:MIXER,DINING ROOM ZN PSZ_9 OA SYSTEM OUTDOOR AIR MIXER,DINING ROOM ZN PSZ_9 OUTDOOR AIR NODE,DINING ROOM ZN PSZ_9 MIXED AIR NODE,Air Nodes
 Component Set,71,AIRLOOPHVAC:OUTDOORAIRSYSTEM,EAST PERIMETER SALES ZN PSZ_3 OA SYSTEM,OUTDOORAIR:MIXER,EAST PERIMETER SALES ZN PSZ_3 OA SYSTEM OUTDOOR AIR MIXER,EAST PERIMETER SALES ZN PSZ_3 OUTDOOR AIR NODE,EAST PERIMETER SALES ZN PSZ_3 MIXED AIR NODE,Air Nodes
 Component Set,72,AIRLOOPHVAC:OUTDOORAIRSYSTEM,ENCLOSED OFFICE ZN PSZ_7 OA SYSTEM,OUTDOORAIR:MIXER,ENCLOSED OFFICE ZN PSZ_7 OA SYSTEM OUTDOOR AIR MIXER,ENCLOSED OFFICE ZN PSZ_7 OUTDOOR AIR NODE,ENCLOSED OFFICE ZN PSZ_7 MIXED AIR NODE,Air Nodes
 Component Set,73,AIRLOOPHVAC:OUTDOORAIRSYSTEM,MAIN SALES ZN PSZ_1 OA SYSTEM,OUTDOORAIR:MIXER,MAIN SALES ZN PSZ_1 OA SYSTEM OUTDOOR AIR MIXER,MAIN SALES ZN PSZ_1 OUTDOOR AIR NODE,MAIN SALES ZN PSZ_1 MIXED AIR NODE,Air Nodes
 Component Set,74,AIRLOOPHVAC:OUTDOORAIRSYSTEM,MECHANICAL ROOM ZN PSZ_11 OA SYSTEM,OUTDOORAIR:MIXER,MECHANICAL ROOM ZN PSZ_11 OA SYSTEM OUTDOOR AIR MIXER,MECHANICAL ROOM ZN PSZ_11 OUTDOOR AIR NODE,MECHANICAL ROOM ZN PSZ_11 MIXED AIR NODE,Air Nodes
 Component Set,75,AIRLOOPHVAC:OUTDOORAIRSYSTEM,MEETING ROOM ZN PSZ_8 OA SYSTEM,OUTDOORAIR:MIXER,MEETING ROOM ZN PSZ_8 OA SYSTEM OUTDOOR AIR MIXER,MEETING ROOM ZN PSZ_8 OUTDOOR AIR NODE,MEETING ROOM ZN PSZ_8 MIXED AIR NODE,Air Nodes
 Component Set,76,AIRLOOPHVAC:OUTDOORAIRSYSTEM,PRODUCE ZN PSZ_4 OA SYSTEM,OUTDOORAIR:MIXER,PRODUCE ZN PSZ_4 OA SYSTEM OUTDOOR AIR MIXER,PRODUCE ZN PSZ_4 OUTDOOR AIR NODE,PRODUCE ZN PSZ_4 MIXED AIR NODE,Air Nodes
 Component Set,77,AIRLOOPHVAC:OUTDOORAIRSYSTEM,RESTROOM ZN PSZ_10 OA SYSTEM,OUTDOORAIR:MIXER,RESTROOM ZN PSZ_10 OA SYSTEM OUTDOOR AIR MIXER,RESTROOM ZN PSZ_10 OUTDOOR AIR NODE,RESTROOM ZN PSZ_10 MIXED AIR NODE,Air Nodes
 Component Set,78,AIRLOOPHVAC:OUTDOORAIRSYSTEM,VESTIBULE ZN PSZ_13 OA SYSTEM,OUTDOORAIR:MIXER,VESTIBULE ZN PSZ_13 OA SYSTEM OUTDOOR AIR MIXER,VESTIBULE ZN PSZ_13 OUTDOOR AIR NODE,VESTIBULE ZN PSZ_13 MIXED AIR NODE,Air Nodes
 Component Set,79,AIRLOOPHVAC:OUTDOORAIRSYSTEM,WEST PERIMETER SALES ZN PSZ_2 OA SYSTEM,OUTDOORAIR:MIXER,WEST PERIMETER SALES ZN PSZ_2 OA SYSTEM OUTDOOR AIR MIXER,WEST PERIMETER SALES ZN PSZ_2 OUTDOOR AIR NODE,WEST PERIMETER SALES ZN PSZ_2 MIXED AIR NODE,Air Nodes
 Component Set,80,AIRLOOPHVAC:UNITARYSYSTEM,ACTIVE STORAGE ZN PSZ_14 UNITARY AC,COIL:HEATING:ELECTRIC,ACTIVE STORAGE ZN PSZ_14 ELECTRIC BACKUP HTG COIL,ACTIVE STORAGE ZN PSZ_14 UNITARY AC FAN - SUPPLEMENTAL COIL NODE,ACTIVE STORAGE ZN PSZ_14 SUPPLY OUTLET NODE,Air Nodes
 Component Set,81,AIRLOOPHVAC:UNITARYSYSTEM,BAKERY ZN PSZ_6 UNITARY AC,COIL:HEATING:ELECTRIC,BAKERY ZN PSZ_6 ELECTRIC BACKUP HTG COIL,BAKERY ZN PSZ_6 UNITARY AC FAN - SUPPLEMENTAL COIL NODE,BAKERY ZN PSZ_6 SUPPLY OUTLET NODE,Air Nodes
 Component Set,82,AIRLOOPHVAC:UNITARYSYSTEM,CORRIDOR ZN PSZ_12 UNITARY AC,COIL:HEATING:ELECTRIC,CORRIDOR ZN PSZ_12 ELECTRIC BACKUP HTG COIL,CORRIDOR ZN PSZ_12 UNITARY AC FAN - SUPPLEMENTAL COIL NODE,CORRIDOR ZN PSZ_12 SUPPLY OUTLET NODE,Air Nodes
 Component Set,83,AIRLOOPHVAC:UNITARYSYSTEM,DELI ZN PSZ_5 UNITARY AC,COIL:HEATING:ELECTRIC,DELI ZN PSZ_5 ELECTRIC BACKUP HTG COIL,DELI ZN PSZ_5 UNITARY AC FAN - SUPPLEMENTAL COIL NODE,DELI ZN PSZ_5 SUPPLY OUTLET NODE,Air Nodes
 Component Set,84,AIRLOOPHVAC:UNITARYSYSTEM,DINING ROOM ZN PSZ_9 UNITARY AC,COIL:HEATING:ELECTRIC,DINING ROOM ZN PSZ_9 ELECTRIC BACKUP HTG COIL,DINING ROOM ZN PSZ_9 UNITARY AC FAN - SUPPLEMENTAL COIL NODE,DINING ROOM ZN PSZ_9 SUPPLY OUTLET NODE,Air Nodes
 Component Set,85,AIRLOOPHVAC:UNITARYSYSTEM,EAST PERIMETER SALES ZN PSZ_3 UNITARY AC,COIL:HEATING:ELECTRIC,EAST PERIMETER SALES ZN PSZ_3 ELECTRIC BACKUP HTG COIL,EAST PERIMETER SALES ZN PSZ_3 UNITARY AC FAN - SUPPLEMENTAL COIL NODE,EAST PERIMETER SALES ZN PSZ_3 SUPPLY OUTLET NODE,Air Nodes
 Component Set,86,AIRLOOPHVAC:UNITARYSYSTEM,ENCLOSED OFFICE ZN PSZ_7 UNITARY AC,COIL:HEATING:ELECTRIC,ENCLOSED OFFICE ZN PSZ_7 ELECTRIC BACKUP HTG COIL,ENCLOSED OFFICE ZN PSZ_7 UNITARY AC FAN - SUPPLEMENTAL COIL NODE,ENCLOSED OFFICE ZN PSZ_7 SUPPLY OUTLET NODE,Air Nodes
 Component Set,87,AIRLOOPHVAC:UNITARYSYSTEM,MAIN SALES ZN PSZ_1 UNITARY AC,COIL:HEATING:ELECTRIC,MAIN SALES ZN PSZ_1 ELECTRIC BACKUP HTG COIL,MAIN SALES ZN PSZ_1 UNITARY AC FAN - SUPPLEMENTAL COIL NODE,MAIN SALES ZN PSZ_1 SUPPLY OUTLET NODE,Air Nodes
 Component Set,88,AIRLOOPHVAC:UNITARYSYSTEM,MECHANICAL ROOM ZN PSZ_11 UNITARY AC,COIL:HEATING:ELECTRIC,MECHANICAL ROOM ZN PSZ_11 ELECTRIC BACKUP HTG COIL,MECHANICAL ROOM ZN PSZ_11 UNITARY AC FAN - SUPPLEMENTAL COIL NODE,MECHANICAL ROOM ZN PSZ_11 SUPPLY OUTLET NODE,Air Nodes
 Component Set,89,AIRLOOPHVAC:UNITARYSYSTEM,MEETING ROOM ZN PSZ_8 UNITARY AC,COIL:HEATING:ELECTRIC,MEETING ROOM ZN PSZ_8 ELECTRIC BACKUP HTG COIL,MEETING ROOM ZN PSZ_8 UNITARY AC FAN - SUPPLEMENTAL COIL NODE,MEETING ROOM ZN PSZ_8 SUPPLY OUTLET NODE,Air Nodes
 Component Set,90,AIRLOOPHVAC:UNITARYSYSTEM,PRODUCE ZN PSZ_4 UNITARY AC,COIL:HEATING:ELECTRIC,PRODUCE ZN PSZ_4 ELECTRIC BACKUP HTG COIL,PRODUCE ZN PSZ_4 UNITARY AC FAN - SUPPLEMENTAL COIL NODE,PRODUCE ZN PSZ_4 SUPPLY OUTLET NODE,Air Nodes
 Component Set,91,AIRLOOPHVAC:UNITARYSYSTEM,RESTROOM ZN PSZ_10 UNITARY AC,COIL:HEATING:ELECTRIC,RESTROOM ZN PSZ_10 ELECTRIC BACKUP HTG COIL,RESTROOM ZN PSZ_10 UNITARY AC FAN - SUPPLEMENTAL COIL NODE,RESTROOM ZN PSZ_10 SUPPLY OUTLET NODE,Air Nodes
 Component Set,92,AIRLOOPHVAC:UNITARYSYSTEM,VESTIBULE ZN PSZ_13 UNITARY AC,COIL:HEATING:ELECTRIC,VESTIBULE ZN PSZ_13 ELECTRIC BACKUP HTG COIL,VESTIBULE ZN PSZ_13 UNITARY AC FAN - SUPPLEMENTAL COIL NODE,VESTIBULE ZN PSZ_13 SUPPLY OUTLET NODE,Air Nodes
 Component Set,93,AIRLOOPHVAC:UNITARYSYSTEM,WEST PERIMETER SALES ZN PSZ_2 UNITARY AC,COIL:HEATING:ELECTRIC,WEST PERIMETER SALES ZN PSZ_2 ELECTRIC BACKUP HTG COIL,WEST PERIMETER SALES ZN PSZ_2 UNITARY AC FAN - SUPPLEMENTAL COIL NODE,WEST PERIMETER SALES ZN PSZ_2 SUPPLY OUTLET NODE,Air Nodes
 Component Set,94,AIRLOOPHVAC:UNITARYSYSTEM,ACTIVE STORAGE ZN PSZ_14 UNITARY AC,COIL:HEATING:FUEL,ACTIVE STORAGE ZN PSZ_14 GAS HTG COIL,ACTIVE STORAGE ZN PSZ_14 UNITARY AC COOLING COIL - HEATING COIL NODE,ACTIVE STORAGE ZN PSZ_14 UNITARY AC HEATING COIL - FAN NODE,Air Nodes
 Component Set,95,AIRLOOPHVAC:UNITARYSYSTEM,BAKERY ZN PSZ_6 UNITARY AC,COIL:HEATING:FUEL,BAKERY ZN PSZ_6 GAS HTG COIL,BAKERY ZN PSZ_6 UNITARY AC COOLING COIL - HEATING COIL NODE,BAKERY ZN PSZ_6 UNITARY AC HEATING COIL - FAN NODE,Air Nodes
 Component Set,96,AIRLOOPHVAC:UNITARYSYSTEM,CORRIDOR ZN PSZ_12 UNITARY AC,COIL:HEATING:FUEL,CORRIDOR ZN PSZ_12 GAS HTG COIL,CORRIDOR ZN PSZ_12 UNITARY AC COOLING COIL - HEATING COIL NODE,CORRIDOR ZN PSZ_12 UNITARY AC HEATING COIL - FAN NODE,Air Nodes
 Component Set,97,AIRLOOPHVAC:UNITARYSYSTEM,DELI ZN PSZ_5 UNITARY AC,COIL:HEATING:FUEL,DELI ZN PSZ_5 GAS HTG COIL,DELI ZN PSZ_5 UNITARY AC COOLING COIL - HEATING COIL NODE,DELI ZN PSZ_5 UNITARY AC HEATING COIL - FAN NODE,Air Nodes
 Component Set,98,AIRLOOPHVAC:UNITARYSYSTEM,DINING ROOM ZN PSZ_9 UNITARY AC,COIL:HEATING:FUEL,DINING ROOM ZN PSZ_9 GAS HTG COIL,DINING ROOM ZN PSZ_9 UNITARY AC COOLING COIL - HEATING COIL NODE,DINING ROOM ZN PSZ_9 UNITARY AC HEATING COIL - FAN NODE,Air Nodes
 Component Set,99,AIRLOOPHVAC:UNITARYSYSTEM,EAST PERIMETER SALES ZN PSZ_3 UNITARY AC,COIL:HEATING:FUEL,EAST PERIMETER SALES ZN PSZ_3 GAS HTG COIL,EAST PERIMETER SALES ZN PSZ_3 UNITARY AC COOLING COIL - HEATING COIL NODE,EAST PERIMETER SALES ZN PSZ_3 UNITARY AC HEATING COIL - FAN NODE,Air Nodes
 Component Set,100,AIRLOOPHVAC:UNITARYSYSTEM,ENCLOSED OFFICE ZN PSZ_7 UNITARY AC,COIL:HEATING:FUEL,ENCLOSED OFFICE ZN PSZ_7 GAS HTG COIL,ENCLOSED OFFICE ZN PSZ_7 UNITARY AC COOLING COIL - HEATING COIL NODE,ENCLOSED OFFICE ZN PSZ_7 UNITARY AC HEATING COIL - FAN NODE,Air Nodes
 Component Set,101,AIRLOOPHVAC:UNITARYSYSTEM,MAIN SALES ZN PSZ_1 UNITARY AC,COIL:HEATING:FUEL,MAIN SALES ZN PSZ_1 GAS HTG COIL,MAIN SALES ZN PSZ_1 UNITARY AC COOLING COIL - HEATING COIL NODE,MAIN SALES ZN PSZ_1 UNITARY AC HEATING COIL - FAN NODE,Air Nodes
 Component Set,102,AIRLOOPHVAC:UNITARYSYSTEM,MECHANICAL ROOM ZN PSZ_11 UNITARY AC,COIL:HEATING:FUEL,MECHANICAL ROOM ZN PSZ_11 GAS HTG COIL,MECHANICAL ROOM ZN PSZ_11 UNITARY AC COOLING COIL - HEATING COIL NODE,MECHANICAL ROOM ZN PSZ_11 UNITARY AC HEATING COIL - FAN NODE,Air Nodes
 Component Set,103,AIRLOOPHVAC:UNITARYSYSTEM,MEETING ROOM ZN PSZ_8 UNITARY AC,COIL:HEATING:FUEL,MEETING ROOM ZN PSZ_8 GAS HTG COIL,MEETING ROOM ZN PSZ_8 UNITARY AC COOLING COIL - HEATING COIL NODE,MEETING ROOM ZN PSZ_8 UNITARY AC HEATING COIL - FAN NODE,Air Nodes
 Component Set,104,AIRLOOPHVAC:UNITARYSYSTEM,PRODUCE ZN PSZ_4 UNITARY AC,COIL:HEATING:FUEL,PRODUCE ZN PSZ_4 GAS HTG COIL,PRODUCE ZN PSZ_4 UNITARY AC COOLING COIL - HEATING COIL NODE,PRODUCE ZN PSZ_4 UNITARY AC HEATING COIL - FAN NODE,Air Nodes
 Component Set,105,AIRLOOPHVAC:UNITARYSYSTEM,RESTROOM ZN PSZ_10 UNITARY AC,COIL:HEATING:FUEL,RESTROOM ZN PSZ_10 GAS HTG COIL,RESTROOM ZN PSZ_10 UNITARY AC COOLING COIL - HEATING COIL NODE,RESTROOM ZN PSZ_10 UNITARY AC HEATING COIL - FAN NODE,Air Nodes
 Component Set,106,AIRLOOPHVAC:UNITARYSYSTEM,VESTIBULE ZN PSZ_13 UNITARY AC,COIL:HEATING:FUEL,VESTIBULE ZN PSZ_13 GAS HTG COIL,VESTIBULE ZN PSZ_13 UNITARY AC COOLING COIL - HEATING COIL NODE,VESTIBULE ZN PSZ_13 UNITARY AC HEATING COIL - FAN NODE,Air Nodes
 Component Set,107,AIRLOOPHVAC:UNITARYSYSTEM,WEST PERIMETER SALES ZN PSZ_2 UNITARY AC,COIL:HEATING:FUEL,WEST PERIMETER SALES ZN PSZ_2 GAS HTG COIL,WEST PERIMETER SALES ZN PSZ_2 UNITARY AC COOLING COIL - HEATING COIL NODE,WEST PERIMETER SALES ZN PSZ_2 UNITARY AC HEATING COIL - FAN NODE,Air Nodes
 Component Set,108,AIRLOOPHVAC:UNITARYSYSTEM,ACTIVE STORAGE ZN PSZ_14 UNITARY AC,COIL:COOLING:DX:TWOSPEED,ACTIVE STORAGE ZN PSZ_14 2SPD DX AC CLG COIL 152KBTU/HR 9.5EER,ACTIVE STORAGE ZN PSZ_14 MIXED AIR NODE,ACTIVE STORAGE ZN PSZ_14 UNITARY AC COOLING COIL - HEATING COIL NODE,Air Nodes
 Component Set,109,AIRLOOPHVAC:UNITARYSYSTEM,BAKERY ZN PSZ_6 UNITARY AC,COIL:COOLING:DX:TWOSPEED,BAKERY ZN PSZ_6 2SPD DX AC CLG COIL 70KBTU/HR 10.1EER,BAKERY ZN PSZ_6 MIXED AIR NODE,BAKERY ZN PSZ_6 UNITARY AC COOLING COIL - HEATING COIL NODE,Air Nodes
 Component Set,110,AIRLOOPHVAC:UNITARYSYSTEM,CORRIDOR ZN PSZ_12 UNITARY AC,COIL:COOLING:DX:TWOSPEED,CORRIDOR ZN PSZ_12 2SPD DX AC CLG COIL 17KBTU/HR 9.7SEER,CORRIDOR ZN PSZ_12 MIXED AIR NODE,CORRIDOR ZN PSZ_12 UNITARY AC COOLING COIL - HEATING COIL NODE,Air Nodes
 Component Set,111,AIRLOOPHVAC:UNITARYSYSTEM,DELI ZN PSZ_5 UNITARY AC,COIL:COOLING:DX:TWOSPEED,DELI ZN PSZ_5 2SPD DX AC CLG COIL 72KBTU/HR 10.1EER,DELI ZN PSZ_5 MIXED AIR NODE,DELI ZN PSZ_5 UNITARY AC COOLING COIL - HEATING COIL NODE,Air Nodes
 Component Set,112,AIRLOOPHVAC:UNITARYSYSTEM,DINING ROOM ZN PSZ_9 UNITARY AC,COIL:COOLING:DX:TWOSPEED,DINING ROOM ZN PSZ_9 2SPD DX AC CLG COIL 43KBTU/HR 9.7SEER,DINING ROOM ZN PSZ_9 MIXED AIR NODE,DINING ROOM ZN PSZ_9 UNITARY AC COOLING COIL - HEATING COIL NODE,Air Nodes
 Component Set,113,AIRLOOPHVAC:UNITARYSYSTEM,EAST PERIMETER SALES ZN PSZ_3 UNITARY AC,COIL:COOLING:DX:TWOSPEED,EAST PERIMETER SALES ZN PSZ_3 2SPD DX AC CLG COIL 60KBTU/HR 9.7SEER,EAST PERIMETER SALES ZN PSZ_3 MIXED AIR NODE,EAST PERIMETER SALES ZN PSZ_3 UNITARY AC COOLING COIL - HEATING COIL NODE,Air Nodes
 Component Set,114,AIRLOOPHVAC:UNITARYSYSTEM,ENCLOSED OFFICE ZN PSZ_7 UNITARY AC,COIL:COOLING:DX:TWOSPEED,ENCLOSED OFFICE ZN PSZ_7 2SPD DX AC CLG COIL 10KBTU/HR 9.7SEER,ENCLOSED OFFICE ZN PSZ_7 MIXED AIR NODE,ENCLOSED OFFICE ZN PSZ_7 UNITARY AC COOLING COIL - HEATING COIL NODE,Air Nodes
 Component Set,115,AIRLOOPHVAC:UNITARYSYSTEM,MAIN SALES ZN PSZ_1 UNITARY AC,COIL:COOLING:DX:TWOSPEED,MAIN SALES ZN PSZ_1 2SPD DX AC CLG COIL 523KBTU/HR 9.3EER,MAIN SALES ZN PSZ_1 MIXED AIR NODE,MAIN SALES ZN PSZ_1 UNITARY AC COOLING COIL - HEATING COIL NODE,Air Nodes
 Component Set,116,AIRLOOPHVAC:UNITARYSYSTEM,MECHANICAL ROOM ZN PSZ_11 UNITARY AC,COIL:COOLING:DX:TWOSPEED,MECHANICAL ROOM ZN PSZ_11 2SPD DX AC CLG COIL 11KBTU/HR 9.7SEER,MECHANICAL ROOM ZN PSZ_11 MIXED AIR NODE,MECHANICAL ROOM ZN PSZ_11 UNITARY AC COOLING COIL - HEATING COIL NODE,Air Nodes
 Component Set,117,AIRLOOPHVAC:UNITARYSYSTEM,MEETING ROOM ZN PSZ_8 UNITARY AC,COIL:COOLING:DX:TWOSPEED,MEETING ROOM ZN PSZ_8 2SPD DX AC CLG COIL 28KBTU/HR 9.7SEER,MEETING ROOM ZN PSZ_8 MIXED AIR NODE,MEETING ROOM ZN PSZ_8 UNITARY AC COOLING COIL - HEATING COIL NODE,Air Nodes
 Component Set,118,AIRLOOPHVAC:UNITARYSYSTEM,PRODUCE ZN PSZ_4 UNITARY AC,COIL:COOLING:DX:TWOSPEED,PRODUCE ZN PSZ_4 2SPD DX AC CLG COIL 249KBTU/HR 9.3EER,PRODUCE ZN PSZ_4 MIXED AIR NODE,PRODUCE ZN PSZ_4 UNITARY AC COOLING COIL - HEATING COIL NODE,Air Nodes
 Component Set,119,AIRLOOPHVAC:UNITARYSYSTEM,RESTROOM ZN PSZ_10 UNITARY AC,COIL:COOLING:DX:TWOSPEED,RESTROOM ZN PSZ_10 2SPD DX AC CLG COIL 28KBTU/HR 9.7SEER,RESTROOM ZN PSZ_10 MIXED AIR NODE,RESTROOM ZN PSZ_10 UNITARY AC COOLING COIL - HEATING COIL NODE,Air Nodes
 Component Set,120,AIRLOOPHVAC:UNITARYSYSTEM,VESTIBULE ZN PSZ_13 UNITARY AC,COIL:COOLING:DX:TWOSPEED,VESTIBULE ZN PSZ_13 2SPD DX AC CLG COIL 1KBTU/HR 9.7SEER,VESTIBULE ZN PSZ_13 MIXED AIR NODE,VESTIBULE ZN PSZ_13 UNITARY AC COOLING COIL - HEATING COIL NODE,Air Nodes
 Component Set,121,AIRLOOPHVAC:UNITARYSYSTEM,WEST PERIMETER SALES ZN PSZ_2 UNITARY AC,COIL:COOLING:DX:TWOSPEED,WEST PERIMETER SALES ZN PSZ_2 2SPD DX AC CLG COIL 60KBTU/HR 9.7SEER,WEST PERIMETER SALES ZN PSZ_2 MIXED AIR NODE,WEST PERIMETER SALES ZN PSZ_2 UNITARY AC COOLING COIL - HEATING COIL NODE,Air Nodes
! ===============================================================
! <# Plant Loops>,<Number of Plant Loops>
 #Plant Loops,1
! <Plant Loop>,<Plant Loop Name>,<Loop Type>,<Inlet Node Name>,<Outlet Node Name>,<Branch List>,<Connector List>
! <Plant Loop Connector>,<Connector Type>,<Connector Name>,<Loop Name>,<Loop Type>,<Number of Inlets/Outlets>
! <Plant Loop Connector Branches>,<Connector Node Count>,<Connector Type>,<Connector Name>,<Inlet Branch>,<Outlet Branch>,<Loop Name>,<Loop Type>
! <Plant Loop Connector Nodes>,<Connector Node Count>,<Connector Type>,<Connector Name>,<Inlet Node>,<Outlet Node>,<Loop Name>,<Loop Type>
! <Plant Loop Supply Connection>,<Plant Loop Name>,<Supply Side Outlet Node Name>,<Demand Side Inlet Node Name>
! <Plant Loop Return Connection>,<Plant Loop Name>,<Demand Side Outlet Node Name>,<Supply Side Inlet Node Name>
 Plant Loop,MAIN SERVICE WATER LOOP,Demand,MAIN SERVICE WATER LOOP DEMAND INLET NODE,MAIN SERVICE WATER LOOP DEMAND OUTLET NODE,MAIN SERVICE WATER LOOP DEMAND BRANCHES,MAIN SERVICE WATER LOOP DEMAND CONNECTOR LIST
   Plant Loop Connector,Splitter,MAIN SERVICE WATER LOOP DEMAND SPLITTER,MAIN SERVICE WATER LOOP,Demand,3
     Plant Loop Connector Branches,1,Splitter,MAIN SERVICE WATER LOOP DEMAND SPLITTER,MAIN SERVICE WATER LOOP DEMAND INLET BRANCH,MAIN SERVICE WATER LOOP DEMAND BRANCH 1,MAIN SERVICE WATER LOOP,Demand
     Plant Loop Connector Nodes,   1,Splitter,MAIN SERVICE WATER LOOP DEMAND SPLITTER,MAIN SERVICE WATER LOOP DEMAND INLET PIPE NODE,PIPE ADIABATIC 2 INLET WATER NODE,MAIN SERVICE WATER LOOP,Demand
     Plant Loop Connector Branches,2,Splitter,MAIN SERVICE WATER LOOP DEMAND SPLITTER,MAIN SERVICE WATER LOOP DEMAND INLET BRANCH,MAIN SERVICE WATER LOOP DEMAND BRANCH 2,MAIN SERVICE WATER LOOP,Demand
     Plant Loop Connector Nodes,   2,Splitter,MAIN SERVICE WATER LOOP DEMAND SPLITTER,MAIN SERVICE WATER LOOP DEMAND INLET PIPE NODE,MAIN WUC 0.17GPM AT 140F INLET WATER NODE,MAIN SERVICE WATER LOOP,Demand
     Plant Loop Connector Branches,3,Splitter,MAIN SERVICE WATER LOOP DEMAND SPLITTER,MAIN SERVICE WATER LOOP DEMAND INLET BRANCH,MAIN SERVICE WATER LOOP DEMAND BYPASS BRANCH,MAIN SERVICE WATER LOOP,Demand
     Plant Loop Connector Nodes,   3,Splitter,MAIN SERVICE WATER LOOP DEMAND SPLITTER,MAIN SERVICE WATER LOOP DEMAND INLET PIPE NODE,MAIN SERVICE WATER LOOP DEMAND BYPASS PIPE INLET NODE,MAIN SERVICE WATER LOOP,Demand
   Plant Loop Connector,Mixer,MAIN SERVICE WATER LOOP DEMAND MIXER,MAIN SERVICE WATER LOOP,Demand,3
     Plant Loop Connector Branches,1,Mixer,MAIN SERVICE WATER LOOP DEMAND MIXER,MAIN SERVICE WATER LOOP DEMAND BRANCH 1,MAIN SERVICE WATER LOOP DEMAND OUTLET BRANCH,MAIN SERVICE WATER LOOP,Demand
     Plant Loop Connector Nodes,   1,Mixer,MAIN SERVICE WATER LOOP DEMAND MIXER,PIPE ADIABATIC 2 OUTLET WATER NODE,PIPE ADIABATIC 4 INLET WATER NODE,MAIN SERVICE WATER LOOP,Demand
     Plant Loop Connector Branches,2,Mixer,MAIN SERVICE WATER LOOP DEMAND MIXER,MAIN SERVICE WATER LOOP DEMAND BRANCH 2,MAIN SERVICE WATER LOOP DEMAND OUTLET BRANCH,MAIN SERVICE WATER LOOP,Demand
     Plant Loop Connector Nodes,   2,Mixer,MAIN SERVICE WATER LOOP DEMAND MIXER,MAIN WUC 0.17GPM AT 140F OUTLET WATER NODE,PIPE ADIABATIC 4 INLET WATER NODE,MAIN SERVICE WATER LOOP,Demand
     Plant Loop Connector Branches,3,Mixer,MAIN SERVICE WATER LOOP DEMAND MIXER,MAIN SERVICE WATER LOOP DEMAND BYPASS BRANCH,MAIN SERVICE WATER LOOP DEMAND OUTLET BRANCH,MAIN SERVICE WATER LOOP,Demand
     Plant Loop Connector Nodes,   3,Mixer,MAIN SERVICE WATER LOOP DEMAND MIXER,MAIN SERVICE WATER LOOP DEMAND BYPASS PIPE OUTLET NODE,PIPE ADIABATIC 4 INLET WATER NODE,MAIN SERVICE WATER LOOP,Demand
 Plant Loop,MAIN SERVICE WATER LOOP,Supply,MAIN SERVICE WATER LOOP SUPPLY INLET NODE,MAIN SERVICE WATER LOOP SUPPLY OUTLET NODE,MAIN SERVICE WATER LOOP SUPPLY BRANCHES,MAIN SERVICE WATER LOOP SUPPLY CONNECTOR LIST
   Plant Loop Connector,Splitter,MAIN SERVICE WATER LOOP SUPPLY SPLITTER,MAIN SERVICE WATER LOOP,Supply,2
     Plant Loop Connector Branches,1,Splitter,MAIN SERVICE WATER LOOP SUPPLY SPLITTER,MAIN SERVICE WATER LOOP SUPPLY INLET BRANCH,MAIN SERVICE WATER LOOP SUPPLY BRANCH 1,MAIN SERVICE WATER LOOP,Supply
     Plant Loop Connector Nodes,   1,Splitter,MAIN SERVICE WATER LOOP SUPPLY SPLITTER,MAIN SERVICE WATER LOOP WATER MAINS PRESSURE DRIVEN OUTLET WATER NODE,105GAL NATURAL GAS WATER HEATER - 2883KBTU/HR 0.801 THERM EFF SUPPLY INLET WATER NODE,MAIN SERVICE WATER LOOP,Supply
     Plant Loop Connector Branches,2,Splitter,MAIN SERVICE WATER LOOP SUPPLY SPLITTER,MAIN SERVICE WATER LOOP SUPPLY INLET BRANCH,MAIN SERVICE WATER LOOP SUPPLY BRANCH 2,MAIN SERVICE WATER LOOP,Supply
     Plant Loop Connector Nodes,   2,Splitter,MAIN SERVICE WATER LOOP SUPPLY SPLITTER,MAIN SERVICE WATER LOOP WATER MAINS PRESSURE DRIVEN OUTLET WATER NODE,PIPE ADIABATIC 1 INLET WATER NODE,MAIN SERVICE WATER LOOP,Supply
   Plant Loop Connector,Mixer,MAIN SERVICE WATER LOOP SUPPLY MIXER,MAIN SERVICE WATER LOOP,Supply,2
     Plant Loop Connector Branches,1,Mixer,MAIN SERVICE WATER LOOP SUPPLY MIXER,MAIN SERVICE WATER LOOP SUPPLY BRANCH 1,MAIN SERVICE WATER LOOP SUPPLY OUTLET BRANCH,MAIN SERVICE WATER LOOP,Supply
[...]
 Non-Parent Node Connection,EAST PERIMETER SALES ZN PSZ_3 SUPPLY OUTLET NODE,COIL:HEATING:ELECTRIC,EAST PERIMETER SALES ZN PSZ_3 ELECTRIC BACKUP HTG COIL,Outlet,1
 Non-Parent Node Connection,ENCLOSED OFFICE ZN PSZ_7 UNITARY AC FAN - SUPPLEMENTAL COIL NODE,COIL:HEATING:ELECTRIC,ENCLOSED OFFICE ZN PSZ_7 ELECTRIC BACKUP HTG COIL,Inlet,1
 Non-Parent Node Connection,ENCLOSED OFFICE ZN PSZ_7 SUPPLY OUTLET NODE,COIL:HEATING:ELECTRIC,ENCLOSED OFFICE ZN PSZ_7 ELECTRIC BACKUP HTG COIL,Outlet,1
 Non-Parent Node Connection,MAIN SALES ZN PSZ_1 UNITARY AC FAN - SUPPLEMENTAL COIL NODE,COIL:HEATING:ELECTRIC,MAIN SALES ZN PSZ_1 ELECTRIC BACKUP HTG COIL,Inlet,1
 Non-Parent Node Connection,MAIN SALES ZN PSZ_1 SUPPLY OUTLET NODE,COIL:HEATING:ELECTRIC,MAIN SALES ZN PSZ_1 ELECTRIC BACKUP HTG COIL,Outlet,1
 Non-Parent Node Connection,MECHANICAL ROOM ZN PSZ_11 UNITARY AC FAN - SUPPLEMENTAL COIL NODE,COIL:HEATING:ELECTRIC,MECHANICAL ROOM ZN PSZ_11 ELECTRIC BACKUP HTG COIL,Inlet,1
 Non-Parent Node Connection,MECHANICAL ROOM ZN PSZ_11 SUPPLY OUTLET NODE,COIL:HEATING:ELECTRIC,MECHANICAL ROOM ZN PSZ_11 ELECTRIC BACKUP HTG COIL,Outlet,1
 Non-Parent Node Connection,MEETING ROOM ZN PSZ_8 UNITARY AC FAN - SUPPLEMENTAL COIL NODE,COIL:HEATING:ELECTRIC,MEETING ROOM ZN PSZ_8 ELECTRIC BACKUP HTG COIL,Inlet,1
 Non-Parent Node Connection,MEETING ROOM ZN PSZ_8 SUPPLY OUTLET NODE,COIL:HEATING:ELECTRIC,MEETING ROOM ZN PSZ_8 ELECTRIC BACKUP HTG COIL,Outlet,1
 Non-Parent Node Connection,PRODUCE ZN PSZ_4 UNITARY AC FAN - SUPPLEMENTAL COIL NODE,COIL:HEATING:ELECTRIC,PRODUCE ZN PSZ_4 ELECTRIC BACKUP HTG COIL,Inlet,1
 Non-Parent Node Connection,PRODUCE ZN PSZ_4 SUPPLY OUTLET NODE,COIL:HEATING:ELECTRIC,PRODUCE ZN PSZ_4 ELECTRIC BACKUP HTG COIL,Outlet,1
 Non-Parent Node Connection,RESTROOM ZN PSZ_10 UNITARY AC FAN - SUPPLEMENTAL COIL NODE,COIL:HEATING:ELECTRIC,RESTROOM ZN PSZ_10 ELECTRIC BACKUP HTG COIL,Inlet,1
 Non-Parent Node Connection,RESTROOM ZN PSZ_10 SUPPLY OUTLET NODE,COIL:HEATING:ELECTRIC,RESTROOM ZN PSZ_10 ELECTRIC BACKUP HTG COIL,Outlet,1
 Non-Parent Node Connection,VESTIBULE ZN PSZ_13 UNITARY AC FAN - SUPPLEMENTAL COIL NODE,COIL:HEATING:ELECTRIC,VESTIBULE ZN PSZ_13 ELECTRIC BACKUP HTG COIL,Inlet,1
 Non-Parent Node Connection,VESTIBULE ZN PSZ_13 SUPPLY OUTLET NODE,COIL:HEATING:ELECTRIC,VESTIBULE ZN PSZ_13 ELECTRIC BACKUP HTG COIL,Outlet,1
 Non-Parent Node Connection,WEST PERIMETER SALES ZN PSZ_2 UNITARY AC FAN - SUPPLEMENTAL COIL NODE,COIL:HEATING:ELECTRIC,WEST PERIMETER SALES ZN PSZ_2 ELECTRIC BACKUP HTG COIL,Inlet,1
 Non-Parent Node Connection,WEST PERIMETER SALES ZN PSZ_2 SUPPLY OUTLET NODE,COIL:HEATING:ELECTRIC,WEST PERIMETER SALES ZN PSZ_2 ELECTRIC BACKUP HTG COIL,Outlet,1
 Non-Parent Node Connection,ACTIVE STORAGE ZN PSZ_14 UNITARY AC COOLING COIL - HEATING COIL NODE,COIL:HEATING:FUEL,ACTIVE STORAGE ZN PSZ_14 GAS HTG COIL,Inlet,1
 Non-Parent Node Connection,ACTIVE STORAGE ZN PSZ_14 UNITARY AC HEATING COIL - FAN NODE,COIL:HEATING:FUEL,ACTIVE STORAGE ZN PSZ_14 GAS HTG COIL,Outlet,1
 Non-Parent Node Connection,BAKERY ZN PSZ_6 UNITARY AC COOLING COIL - HEATING COIL NODE,COIL:HEATING:FUEL,BAKERY ZN PSZ_6 GAS HTG COIL,Inlet,1
 Non-Parent Node Connection,BAKERY ZN PSZ_6 UNITARY AC HEATING COIL - FAN NODE,COIL:HEATING:FUEL,BAKERY ZN PSZ_6 GAS HTG COIL,Outlet,1
 Non-Parent Node Connection,CORRIDOR ZN PSZ_12 UNITARY AC COOLING COIL - HEATING COIL NODE,COIL:HEATING:FUEL,CORRIDOR ZN PSZ_12 GAS HTG COIL,Inlet,1
 Non-Parent Node Connection,CORRIDOR ZN PSZ_12 UNITARY AC HEATING COIL - FAN NODE,COIL:HEATING:FUEL,CORRIDOR ZN PSZ_12 GAS HTG COIL,Outlet,1
 Non-Parent Node Connection,DELI ZN PSZ_5 UNITARY AC COOLING COIL - HEATING COIL NODE,COIL:HEATING:FUEL,DELI ZN PSZ_5 GAS HTG COIL,Inlet,1
 Non-Parent Node Connection,DELI ZN PSZ_5 UNITARY AC HEATING COIL - FAN NODE,COIL:HEATING:FUEL,DELI ZN PSZ_5 GAS HTG COIL,Outlet,1
 Non-Parent Node Connection,DINING ROOM ZN PSZ_9 UNITARY AC COOLING COIL - HEATING COIL NODE,COIL:HEATING:FUEL,DINING ROOM ZN PSZ_9 GAS HTG COIL,Inlet,1
 Non-Parent Node Connection,DINING ROOM ZN PSZ_9 UNITARY AC HEATING COIL - FAN NODE,COIL:HEATING:FUEL,DINING ROOM ZN PSZ_9 GAS HTG COIL,Outlet,1
 Non-Parent Node Connection,EAST PERIMETER SALES ZN PSZ_3 UNITARY AC COOLING COIL - HEATING COIL NODE,COIL:HEATING:FUEL,EAST PERIMETER SALES ZN PSZ_3 GAS HTG COIL,Inlet,1
 Non-Parent Node Connection,EAST PERIMETER SALES ZN PSZ_3 UNITARY AC HEATING COIL - FAN NODE,COIL:HEATING:FUEL,EAST PERIMETER SALES ZN PSZ_3 GAS HTG COIL,Outlet,1
 Non-Parent Node Connection,ENCLOSED OFFICE ZN PSZ_7 UNITARY AC COOLING COIL - HEATING COIL NODE,COIL:HEATING:FUEL,ENCLOSED OFFICE ZN PSZ_7 GAS HTG COIL,Inlet,1
 Non-Parent Node Connection,ENCLOSED OFFICE ZN PSZ_7 UNITARY AC HEATING COIL - FAN NODE,COIL:HEATING:FUEL,ENCLOSED OFFICE ZN PSZ_7 GAS HTG COIL,Outlet,1
 Non-Parent Node Connection,MAIN SALES ZN PSZ_1 UNITARY AC COOLING COIL - HEATING COIL NODE,COIL:HEATING:FUEL,MAIN SALES ZN PSZ_1 GAS HTG COIL,Inlet,1
 Non-Parent Node Connection,MAIN SALES ZN PSZ_1 UNITARY AC HEATING COIL - FAN NODE,COIL:HEATING:FUEL,MAIN SALES ZN PSZ_1 GAS HTG COIL,Outlet,1
 Non-Parent Node Connection,MECHANICAL ROOM ZN PSZ_11 UNITARY AC COOLING COIL - HEATING COIL NODE,COIL:HEATING:FUEL,MECHANICAL ROOM ZN PSZ_11 GAS HTG COIL,Inlet,1
 Non-Parent Node Connection,MECHANICAL ROOM ZN PSZ_11 UNITARY AC HEATING COIL - FAN NODE,COIL:HEATING:FUEL,MECHANICAL ROOM ZN PSZ_11 GAS HTG COIL,Outlet,1
 Non-Parent Node Connection,MEETING ROOM ZN PSZ_8 UNITARY AC COOLING COIL - HEATING COIL NODE,COIL:HEATING:FUEL,MEETING ROOM ZN PSZ_8 GAS HTG COIL,Inlet,1
 Non-Parent Node Connection,MEETING ROOM ZN PSZ_8 UNITARY AC HEATING COIL - FAN NODE,COIL:HEATING:FUEL,MEETING ROOM ZN PSZ_8 GAS HTG COIL,Outlet,1
 Non-Parent Node Connection,PRODUCE ZN PSZ_4 UNITARY AC COOLING COIL - HEATING COIL NODE,COIL:HEATING:FUEL,PRODUCE ZN PSZ_4 GAS HTG COIL,Inlet,1
 Non-Parent Node Connection,PRODUCE ZN PSZ_4 UNITARY AC HEATING COIL - FAN NODE,COIL:HEATING:FUEL,PRODUCE ZN PSZ_4 GAS HTG COIL,Outlet,1
 Non-Parent Node Connection,RESTROOM ZN PSZ_10 UNITARY AC COOLING COIL - HEATING COIL NODE,COIL:HEATING:FUEL,RESTROOM ZN PSZ_10 GAS HTG COIL,Inlet,1
 Non-Parent Node Connection,RESTROOM ZN PSZ_10 UNITARY AC HEATING COIL - FAN NODE,COIL:HEATING:FUEL,RESTROOM ZN PSZ_10 GAS HTG COIL,Outlet,1
 Non-Parent Node Connection,VESTIBULE ZN PSZ_13 UNITARY AC COOLING COIL - HEATING COIL NODE,COIL:HEATING:FUEL,VESTIBULE ZN PSZ_13 GAS HTG COIL,Inlet,1
 Non-Parent Node Connection,VESTIBULE ZN PSZ_13 UNITARY AC HEATING COIL - FAN NODE,COIL:HEATING:FUEL,VESTIBULE ZN PSZ_13 GAS HTG COIL,Outlet,1
 Non-Parent Node Connection,WEST PERIMETER SALES ZN PSZ_2 UNITARY AC COOLING COIL - HEATING COIL NODE,COIL:HEATING:FUEL,WEST PERIMETER SALES ZN PSZ_2 GAS HTG COIL,Inlet,1
 Non-Parent Node Connection,WEST PERIMETER SALES ZN PSZ_2 UNITARY AC HEATING COIL - FAN NODE,COIL:HEATING:FUEL,WEST PERIMETER SALES ZN PSZ_2 GAS HTG COIL,Outlet,1
 Non-Parent Node Connection,ACTIVE STORAGE ZN PSZ_14 MIXED AIR NODE,COIL:COOLING:DX:TWOSPEED,ACTIVE STORAGE ZN PSZ_14 2SPD DX AC CLG COIL 152KBTU/HR 9.5EER,Inlet,1
 Non-Parent Node Connection,ACTIVE STORAGE ZN PSZ_14 UNITARY AC COOLING COIL - HEATING COIL NODE,COIL:COOLING:DX:TWOSPEED,ACTIVE STORAGE ZN PSZ_14 2SPD DX AC CLG COIL 152KBTU/HR 9.5EER,Outlet,1
 Non-Parent Node Connection,BAKERY ZN PSZ_6 MIXED AIR NODE,COIL:COOLING:DX:TWOSPEED,BAKERY ZN PSZ_6 2SPD DX AC CLG COIL 70KBTU/HR 10.1EER,Inlet,1
 Non-Parent Node Connection,BAKERY ZN PSZ_6 UNITARY AC COOLING COIL - HEATING COIL NODE,COIL:COOLING:DX:TWOSPEED,BAKERY ZN PSZ_6 2SPD DX AC CLG COIL 70KBTU/HR 10.1EER,Outlet,1
 Non-Parent Node Connection,CORRIDOR ZN PSZ_12 MIXED AIR NODE,COIL:COOLING:DX:TWOSPEED,CORRIDOR ZN PSZ_12 2SPD DX AC CLG COIL 17KBTU/HR 9.7SEER,Inlet,1
 Non-Parent Node Connection,CORRIDOR ZN PSZ_12 UNITARY AC COOLING COIL - HEATING COIL NODE,COIL:COOLING:DX:TWOSPEED,CORRIDOR ZN PSZ_12 2SPD DX AC CLG COIL 17KBTU/HR 9.7SEER,Outlet,1
 Non-Parent Node Connection,DELI ZN PSZ_5 MIXED AIR NODE,COIL:COOLING:DX:TWOSPEED,DELI ZN PSZ_5 2SPD DX AC CLG COIL 72KBTU/HR 10.1EER,Inlet,1
 Non-Parent Node Connection,DELI ZN PSZ_5 UNITARY AC COOLING COIL - HEATING COIL NODE,COIL:COOLING:DX:TWOSPEED,DELI ZN PSZ_5 2SPD DX AC CLG COIL 72KBTU/HR 10.1EER,Outlet,1
 Non-Parent Node Connection,DINING ROOM ZN PSZ_9 MIXED AIR NODE,COIL:COOLING:DX:TWOSPEED,DINING ROOM ZN PSZ_9 2SPD DX AC CLG COIL 43KBTU/HR 9.7SEER,Inlet,1
 Non-Parent Node Connection,DINING ROOM ZN PSZ_9 UNITARY AC COOLING COIL - HEATING COIL NODE,COIL:COOLING:DX:TWOSPEED,DINING ROOM ZN PSZ_9 2SPD DX AC CLG COIL 43KBTU/HR 9.7SEER,Outlet,1
 Non-Parent Node Connection,EAST PERIMETER SALES ZN PSZ_3 MIXED AIR NODE,COIL:COOLING:DX:TWOSPEED,EAST PERIMETER SALES ZN PSZ_3 2SPD DX AC CLG COIL 60KBTU/HR 9.7SEER,Inlet,1
 Non-Parent Node Connection,EAST PERIMETER SALES ZN PSZ_3 UNITARY AC COOLING COIL - HEATING COIL NODE,COIL:COOLING:DX:TWOSPEED,EAST PERIMETER SALES ZN PSZ_3 2SPD DX AC CLG COIL 60KBTU/HR 9.7SEER,Outlet,1
 Non-Parent Node Connection,ENCLOSED OFFICE ZN PSZ_7 MIXED AIR NODE,COIL:COOLING:DX:TWOSPEED,ENCLOSED OFFICE ZN PSZ_7 2SPD DX AC CLG COIL 10KBTU/HR 9.7SEER,Inlet,1
 Non-Parent Node Connection,ENCLOSED OFFICE ZN PSZ_7 UNITARY AC COOLING COIL - HEATING COIL NODE,COIL:COOLING:DX:TWOSPEED,ENCLOSED OFFICE ZN PSZ_7 2SPD DX AC CLG COIL 10KBTU/HR 9.7SEER,Outlet,1
 Non-Parent Node Connection,MAIN SALES ZN PSZ_1 MIXED AIR NODE,COIL:COOLING:DX:TWOSPEED,MAIN SALES ZN PSZ_1 2SPD DX AC CLG COIL 523KBTU/HR 9.3EER,Inlet,1
 Non-Parent Node Connection,MAIN SALES ZN PSZ_1 UNITARY AC COOLING COIL - HEATING COIL NODE,COIL:COOLING:DX:TWOSPEED,MAIN SALES ZN PSZ_1 2SPD DX AC CLG COIL 523KBTU/HR 9.3EER,Outlet,1
 Non-Parent Node Connection,MECHANICAL ROOM ZN PSZ_11 MIXED AIR NODE,COIL:COOLING:DX:TWOSPEED,MECHANICAL ROOM ZN PSZ_11 2SPD DX AC CLG COIL 11KBTU/HR 9.7SEER,Inlet,1
 Non-Parent Node Connection,MECHANICAL ROOM ZN PSZ_11 UNITARY AC COOLING COIL - HEATING COIL NODE,COIL:COOLING:DX:TWOSPEED,MECHANICAL ROOM ZN PSZ_11 2SPD DX AC CLG COIL 11KBTU/HR 9.7SEER,Outlet,1
 Non-Parent Node Connection,MEETING ROOM ZN PSZ_8 MIXED AIR NODE,COIL:COOLING:DX:TWOSPEED,MEETING ROOM ZN PSZ_8 2SPD DX AC CLG COIL 28KBTU/HR 9.7SEER,Inlet,1
 Non-Parent Node Connection,MEETING ROOM ZN PSZ_8 UNITARY AC COOLING COIL - HEATING COIL NODE,COIL:COOLING:DX:TWOSPEED,MEETING ROOM ZN PSZ_8 2SPD DX AC CLG COIL 28KBTU/HR 9.7SEER,Outlet,1
 Non-Parent Node Connection,PRODUCE ZN PSZ_4 MIXED AIR NODE,COIL:COOLING:DX:TWOSPEED,PRODUCE ZN PSZ_4 2SPD DX AC CLG COIL 249KBTU/HR 9.3EER,Inlet,1
 Non-Parent Node Connection,PRODUCE ZN PSZ_4 UNITARY AC COOLING COIL - HEATING COIL NODE,COIL:COOLING:DX:TWOSPEED,PRODUCE ZN PSZ_4 2SPD DX AC CLG COIL 249KBTU/HR 9.3EER,Outlet,1
 Non-Parent Node Connection,RESTROOM ZN PSZ_10 MIXED AIR NODE,COIL:COOLING:DX:TWOSPEED,RESTROOM ZN PSZ_10 2SPD DX AC CLG COIL 28KBTU/HR 9.7SEER,Inlet,1
 Non-Parent Node Connection,RESTROOM ZN PSZ_10 UNITARY AC COOLING COIL - HEATING COIL NODE,COIL:COOLING:DX:TWOSPEED,RESTROOM ZN PSZ_10 2SPD DX AC CLG COIL 28KBTU/HR 9.7SEER,Outlet,1
 Non-Parent Node Connection,VESTIBULE ZN PSZ_13 MIXED AIR NODE,COIL:COOLING:DX:TWOSPEED,VESTIBULE ZN PSZ_13 2SPD DX AC CLG COIL 1KBTU/HR 9.7SEER,Inlet,1
 Non-Parent Node Connection,VESTIBULE ZN PSZ_13 UNITARY AC COOLING COIL - HEATING COIL NODE,COIL:COOLING:DX:TWOSPEED,VESTIBULE ZN PSZ_13 2SPD DX AC CLG COIL 1KBTU/HR 9.7SEER,Outlet,1
 Non-Parent Node Connection,WEST PERIMETER SALES ZN PSZ_2 MIXED AIR NODE,COIL:COOLING:DX:TWOSPEED,WEST PERIMETER SALES ZN PSZ_2 2SPD DX AC CLG COIL 60KBTU/HR 9.7SEER,Inlet,1
 Non-Parent Node Connection,WEST PERIMETER SALES ZN PSZ_2 UNITARY AC COOLING COIL - HEATING COIL NODE,COIL:COOLING:DX:TWOSPEED,WEST PERIMETER SALES ZN PSZ_2 2SPD DX AC CLG COIL 60KBTU/HR 9.7SEER,Outlet,1
 Non-Parent Node Connection,ACTIVE STORAGE ZN PSZ_14 MIXED AIR NODE,CONTROLLER:OUTDOORAIR,ACTIVE STORAGE ZN PSZ_14 OA SYSTEM CONTROLLER,Sensor,1
 Non-Parent Node Connection,ACTIVE STORAGE ZN PSZ_14 OUTDOOR AIR NODE,CONTROLLER:OUTDOORAIR,ACTIVE STORAGE ZN PSZ_14 OA SYSTEM CONTROLLER,Actuator,1
 Non-Parent Node Connection,ACTIVE STORAGE ZN PSZ_14 RELIEF AIR NODE,CONTROLLER:OUTDOORAIR,ACTIVE STORAGE ZN PSZ_14 OA SYSTEM CONTROLLER,Actuator,1
 Non-Parent Node Connection,ACTIVE STORAGE ZN PSZ_14 SUPPLY INLET NODE,CONTROLLER:OUTDOORAIR,ACTIVE STORAGE ZN PSZ_14 OA SYSTEM CONTROLLER,Sensor,1
 Non-Parent Node Connection,BAKERY ZN PSZ_6 MIXED AIR NODE,CONTROLLER:OUTDOORAIR,BAKERY ZN PSZ_6 OA SYSTEM CONTROLLER,Sensor,1
 Non-Parent Node Connection,BAKERY ZN PSZ_6 OUTDOOR AIR NODE,CONTROLLER:OUTDOORAIR,BAKERY ZN PSZ_6 OA SYSTEM CONTROLLER,Actuator,1
 Non-Parent Node Connection,BAKERY ZN PSZ_6 RELIEF AIR NODE,CONTROLLER:OUTDOORAIR,BAKERY ZN PSZ_6 OA SYSTEM CONTROLLER,Actuator,1
 Non-Parent Node Connection,BAKERY ZN PSZ_6 SUPPLY INLET NODE,CONTROLLER:OUTDOORAIR,BAKERY ZN PSZ_6 OA SYSTEM CONTROLLER,Sensor,1
 Non-Parent Node Connection,CORRIDOR ZN PSZ_12 MIXED AIR NODE,CONTROLLER:OUTDOORAIR,CORRIDOR ZN PSZ_12 OA SYSTEM CONTROLLER,Sensor,1
 Non-Parent Node Connection,CORRIDOR ZN PSZ_12 OUTDOOR AIR NODE,CONTROLLER:OUTDOORAIR,CORRIDOR ZN PSZ_12 OA SYSTEM CONTROLLER,Actuator,1
 Non-Parent Node Connection,CORRIDOR ZN PSZ_12 RELIEF AIR NODE,CONTROLLER:OUTDOORAIR,CORRIDOR ZN PSZ_12 OA SYSTEM CONTROLLER,Actuator,1
 Non-Parent Node Connection,CORRIDOR ZN PSZ_12 SUPPLY INLET NODE,CONTROLLER:OUTDOORAIR,CORRIDOR ZN PSZ_12 OA SYSTEM CONTROLLER,Sensor,1
 Non-Parent Node Connection,DELI ZN PSZ_5 MIXED AIR NODE,CONTROLLER:OUTDOORAIR,DELI ZN PSZ_5 OA SYSTEM CONTROLLER,Sensor,1
 Non-Parent Node Connection,DELI ZN PSZ_5 OUTDOOR AIR NODE,CONTROLLER:OUTDOORAIR,DELI ZN PSZ_5 OA SYSTEM CONTROLLER,Actuator,1
 Non-Parent Node Connection,DELI ZN PSZ_5 RELIEF AIR NODE,CONTROLLER:OUTDOORAIR,DELI ZN PSZ_5 OA SYSTEM CONTROLLER,Actuator,1
 Non-Parent Node Connection,DELI ZN PSZ_5 SUPPLY INLET NODE,CONTROLLER:OUTDOORAIR,DELI ZN PSZ_5 OA SYSTEM CONTROLLER,Sensor,1
 Non-Parent Node Connection,DINING ROOM ZN PSZ_9 MIXED AIR NODE,CONTROLLER:OUTDOORAIR,DINING ROOM ZN PSZ_9 OA SYSTEM CONTROLLER,Sensor,1
 Non-Parent Node Connection,DINING ROOM ZN PSZ_9 OUTDOOR AIR NODE,CONTROLLER:OUTDOORAIR,DINING ROOM ZN PSZ_9 OA SYSTEM CONTROLLER,Actuator,1
 Non-Parent Node Connection,DINING ROOM ZN PSZ_9 RELIEF AIR NODE,CONTROLLER:OUTDOORAIR,DINING ROOM ZN PSZ_9 OA SYSTEM CONTROLLER,Actuator,1
 Non-Parent Node Connection,DINING ROOM ZN PSZ_9 SUPPLY INLET NODE,CONTROLLER:OUTDOORAIR,DINING ROOM ZN PSZ_9 OA SYSTEM CONTROLLER,Sensor,1
 Non-Parent Node Connection,EAST PERIMETER SALES ZN PSZ_3 MIXED AIR NODE,CONTROLLER:OUTDOORAIR,EAST PERIMETER SALES ZN PSZ_3 OA SYSTEM CONTROLLER,Sensor,1
 Non-Parent Node Connection,EAST PERIMETER SALES ZN PSZ_3 OUTDOOR AIR NODE,CONTROLLER:OUTDOORAIR,EAST PERIMETER SALES ZN PSZ_3 OA SYSTEM CONTROLLER,Actuator,1
 Non-Parent Node Connection,EAST PERIMETER SALES ZN PSZ_3 RELIEF AIR NODE,CONTROLLER:OUTDOORAIR,EAST PERIMETER SALES ZN PSZ_3 OA SYSTEM CONTROLLER,Actuator,1
 Non-Parent Node Connection,EAST PERIMETER SALES ZN PSZ_3 SUPPLY INLET NODE,CONTROLLER:OUTDOORAIR,EAST PERIMETER SALES ZN PSZ_3 OA SYSTEM CONTROLLER,Sensor,1
 Non-Parent Node Connection,ENCLOSED OFFICE ZN PSZ_7 MIXED AIR NODE,CONTROLLER:OUTDOORAIR,ENCLOSED OFFICE ZN PSZ_7 OA SYSTEM CONTROLLER,Sensor,1
 Non-Parent Node Connection,ENCLOSED OFFICE ZN PSZ_7 OUTDOOR AIR NODE,CONTROLLER:OUTDOORAIR,ENCLOSED OFFICE ZN PSZ_7 OA SYSTEM CONTROLLER,Actuator,1
 Non-Parent Node Connection,ENCLOSED OFFICE ZN PSZ_7 RELIEF AIR NODE,CONTROLLER:OUTDOORAIR,ENCLOSED OFFICE ZN PSZ_7 OA SYSTEM CONTROLLER,Actuator,1
 Non-Parent Node Connection,ENCLOSED OFFICE ZN PSZ_7 SUPPLY INLET NODE,CONTROLLER:OUTDOORAIR,ENCLOSED OFFICE ZN PSZ_7 OA SYSTEM CONTROLLER,Sensor,1
 Non-Parent Node Connection,MAIN SALES ZN PSZ_1 MIXED AIR NODE,CONTROLLER:OUTDOORAIR,MAIN SALES ZN PSZ_1 OA SYSTEM CONTROLLER,Sensor,1
 Non-Parent Node Connection,MAIN SALES ZN PSZ_1 OUTDOOR AIR NODE,CONTROLLER:OUTDOORAIR,MAIN SALES ZN PSZ_1 OA SYSTEM CONTROLLER,Actuator,1
 Non-Parent Node Connection,MAIN SALES ZN PSZ_1 RELIEF AIR NODE,CONTROLLER:OUTDOORAIR,MAIN SALES ZN PSZ_1 OA SYSTEM CONTROLLER,Actuator,1
 Non-Parent Node Connection,MAIN SALES ZN PSZ_1 SUPPLY INLET NODE,CONTROLLER:OUTDOORAIR,MAIN SALES ZN PSZ_1 OA SYSTEM CONTROLLER,Sensor,1
 Non-Parent Node Connection,MECHANICAL ROOM ZN PSZ_11 MIXED AIR NODE,CONTROLLER:OUTDOORAIR,MECHANICAL ROOM ZN PSZ_11 OA SYSTEM CONTROLLER,Sensor,1
 Non-Parent Node Connection,MECHANICAL ROOM ZN PSZ_11 OUTDOOR AIR NODE,CONTROLLER:OUTDOORAIR,MECHANICAL ROOM ZN PSZ_11 OA SYSTEM CONTROLLER,Actuator,1
 Non-Parent Node Connection,MECHANICAL ROOM ZN PSZ_11 RELIEF AIR NODE,CONTROLLER:OUTDOORAIR,MECHANICAL ROOM ZN PSZ_11 OA SYSTEM CONTROLLER,Actuator,1
 Non-Parent Node Connection,MECHANICAL ROOM ZN PSZ_11 SUPPLY INLET NODE,CONTROLLER:OUTDOORAIR,MECHANICAL ROOM ZN PSZ_11 OA SYSTEM CONTROLLER,Sensor,1
 Non-Parent Node Connection,MEETING ROOM ZN PSZ_8 MIXED AIR NODE,CONTROLLER:OUTDOORAIR,MEETING ROOM ZN PSZ_8 OA SYSTEM CONTROLLER,Sensor,1
 Non-Parent Node Connection,MEETING ROOM ZN PSZ_8 OUTDOOR AIR NODE,CONTROLLER:OUTDOORAIR,MEETING ROOM ZN PSZ_8 OA SYSTEM CONTROLLER,Actuator,1
 Non-Parent Node Connection,MEETING ROOM ZN PSZ_8 RELIEF AIR NODE,CONTROLLER:OUTDOORAIR,MEETING ROOM ZN PSZ_8 OA SYSTEM CONTROLLER,Actuator,1
 Non-Parent Node Connection,MEETING ROOM ZN PSZ_8 SUPPLY INLET NODE,CONTROLLER:OUTDOORAIR,MEETING ROOM ZN PSZ_8 OA SYSTEM CONTROLLER,Sensor,1
 Non-Parent Node Connection,PRODUCE ZN PSZ_4 MIXED AIR NODE,CONTROLLER:OUTDOORAIR,PRODUCE ZN PSZ_4 OA SYSTEM CONTROLLER,Sensor,1
 Non-Parent Node Connection,PRODUCE ZN PSZ_4 OUTDOOR AIR NODE,CONTROLLER:OUTDOORAIR,PRODUCE ZN PSZ_4 OA SYSTEM CONTROLLER,Actuator,1
 Non-Parent Node Connection,PRODUCE ZN PSZ_4 RELIEF AIR NODE,CONTROLLER:OUTDOORAIR,PRODUCE ZN PSZ_4 OA SYSTEM CONTROLLER,Actuator,1
 Non-Parent Node Connection,PRODUCE ZN PSZ_4 SUPPLY INLET NODE,CONTROLLER:OUTDOORAIR,PRODUCE ZN PSZ_4 OA SYSTEM CONTROLLER,Sensor,1
 Non-Parent Node Connection,RESTROOM ZN PSZ_10 MIXED AIR NODE,CONTROLLER:OUTDOORAIR,RESTROOM ZN PSZ_10 OA SYSTEM CONTROLLER,Sensor,1
 Non-Parent Node Connection,RESTROOM ZN PSZ_10 OUTDOOR AIR NODE,CONTROLLER:OUTDOORAIR,RESTROOM ZN PSZ_10 OA SYSTEM CONTROLLER,Actuator,1
 Non-Parent Node Connection,RESTROOM ZN PSZ_10 RELIEF AIR NODE,CONTROLLER:OUTDOORAIR,RESTROOM ZN PSZ_10 OA SYSTEM CONTROLLER,Actuator,1
 Non-Parent Node Connection,RESTROOM ZN PSZ_10 SUPPLY INLET NODE,CONTROLLER:OUTDOORAIR,RESTROOM ZN PSZ_10 OA SYSTEM CONTROLLER,Sensor,1
 Non-Parent Node Connection,VESTIBULE ZN PSZ_13 MIXED AIR NODE,CONTROLLER:OUTDOORAIR,VESTIBULE ZN PSZ_13 OA SYSTEM CONTROLLER,Sensor,1
 Non-Parent Node Connection,VESTIBULE ZN PSZ_13 OUTDOOR AIR NODE,CONTROLLER:OUTDOORAIR,VESTIBULE ZN PSZ_13 OA SYSTEM CONTROLLER,Actuator,1
 Non-Parent Node Connection,VESTIBULE ZN PSZ_13 RELIEF AIR NODE,CONTROLLER:OUTDOORAIR,VESTIBULE ZN PSZ_13 OA SYSTEM CONTROLLER,Actuator,1
 Non-Parent Node Connection,VESTIBULE ZN PSZ_13 SUPPLY INLET NODE,CONTROLLER:OUTDOORAIR,VESTIBULE ZN PSZ_13 OA SYSTEM CONTROLLER,Sensor,1
 Non-Parent Node Connection,WEST PERIMETER SALES ZN PSZ_2 MIXED AIR NODE,CONTROLLER:OUTDOORAIR,WEST PERIMETER SALES ZN PSZ_2 OA SYSTEM CONTROLLER,Sensor,1
 Non-Parent Node Connection,WEST PERIMETER SALES ZN PSZ_2 OUTDOOR AIR NODE,CONTROLLER:OUTDOORAIR,WEST PERIMETER SALES ZN PSZ_2 OA SYSTEM CONTROLLER,Actuator,1
 Non-Parent Node Connection,WEST PERIMETER SALES ZN PSZ_2 RELIEF AIR NODE,CONTROLLER:OUTDOORAIR,WEST PERIMETER SALES ZN PSZ_2 OA SYSTEM CONTROLLER,Actuator,1
 Non-Parent Node Connection,WEST PERIMETER SALES ZN PSZ_2 SUPPLY INLET NODE,CONTROLLER:OUTDOORAIR,WEST PERIMETER SALES ZN PSZ_2 OA SYSTEM CONTROLLER,Sensor,1
 Non-Parent Node Connection,MAIN SERVICE WATER LOOP SUPPLY INLET NODE,PUMP:VARIABLESPEED,MAIN SERVICE WATER LOOP WATER MAINS PRESSURE DRIVEN,Inlet,1
 Non-Parent Node Connection,MAIN SERVICE WATER LOOP WATER MAINS PRESSURE DRIVEN OUTLET WATER NODE,PUMP:VARIABLESPEED,MAIN SERVICE WATER LOOP WATER MAINS PRESSURE DRIVEN,Outlet,1
